data_image0
_chemical_formula_structural       Fe16C6HO2HO2C6HO2HO2C6HO2HO2C6HO2HO2C6HO2HO2C6HO2HO2C6HO2HO2C6HO2HO2C6HO2HO2C6HO2HO2C6HO2HO2C6HO2HO2C6HO2HO2C6HO2HO2C6HO2HO2C6HO2HO2C6HO2HO2C6HO2HO2C6HO2HO2C6HO2HO2C6HO2HO2C6HO2HO2C6HO2HO2C6HO2HO2
_chemical_formula_sum              "Fe16 C144 H48 O96"
_cell_length_a       23.091
_cell_length_b       23.091
_cell_length_c       25.3524
_cell_angle_alpha    86.9874
_cell_angle_beta     86.9874
_cell_angle_gamma    88.5412

_space_group_name_H-M_alt    "P 1"
_space_group_IT_number       1

loop_
  _space_group_symop_operation_xyz
  'x, y, z'

loop_
  _atom_site_type_symbol
  _atom_site_label
  _atom_site_symmetry_multiplicity
  _atom_site_fract_x
  _atom_site_fract_y
  _atom_site_fract_z
  _atom_site_occupancy
  Fe  Fe1       1.0  0.58226  0.00010  0.12090  1.0000
  Fe  Fe2       1.0  0.54590  0.57655  0.61853  1.0000
  Fe  Fe3       1.0  0.90667  0.54832  0.11930  1.0000
  Fe  Fe4       1.0  0.00010  0.90298  0.62174  1.0000
  Fe  Fe5       1.0  0.09702  0.99990  0.87826  1.0000
  Fe  Fe6       1.0  0.45168  0.09333  0.38070  1.0000
  Fe  Fe7       1.0  0.42345  0.45410  0.88147  1.0000
  Fe  Fe8       1.0  0.99990  0.41774  0.37910  1.0000
  Fe  Fe9       1.0  0.41774  0.99990  0.87910  1.0000
  Fe  Fe10      1.0  0.45410  0.42345  0.38147  1.0000
  Fe  Fe11      1.0  0.09333  0.45168  0.88070  1.0000
  Fe  Fe12      1.0  0.99990  0.09702  0.37826  1.0000
  Fe  Fe13      1.0  0.90298  0.00010  0.12174  1.0000
  Fe  Fe14      1.0  0.54832  0.90667  0.61930  1.0000
  Fe  Fe15      1.0  0.57655  0.54590  0.11853  1.0000
  Fe  Fe16      1.0  0.00010  0.58226  0.62090  1.0000
  C   C1        1.0  0.52204  0.94514  0.98701  1.0000
  C   C2        1.0  0.53778  0.96944  0.03348  1.0000
  C   C3        1.0  0.51573  0.02421  0.04647  1.0000
  C   C4        1.0  0.47795  0.05466  0.01299  1.0000
  C   C5        1.0  0.46222  0.03036  0.96652  1.0000
  C   C6        1.0  0.48427  0.97559  0.95353  1.0000
  H   H1        1.0  0.53858  0.90406  0.97727  1.0000
  O   O1        1.0  0.57178  0.94203  0.06362  1.0000
  O   O2        1.0  0.52989  0.04608  0.08830  1.0000
  H   H2        1.0  0.46142  0.09574  0.02273  1.0000
  O   O3        1.0  0.42822  0.05777  0.93638  1.0000
  O   O4        1.0  0.47011  0.95372  0.91170  1.0000
  C   C7        1.0  0.55107  0.50863  0.46862  1.0000
  C   C8        1.0  0.50424  0.48136  0.44825  1.0000
  C   C9        1.0  0.45317  0.47273  0.47963  1.0000
  C   C10       1.0  0.44893  0.49137  0.53138  1.0000
  C   C11       1.0  0.49576  0.51864  0.55175  1.0000
  C   C12       1.0  0.54683  0.52727  0.52037  1.0000
  H   H3        1.0  0.58938  0.51510  0.44509  1.0000
  O   O5        1.0  0.50806  0.46459  0.40167  1.0000
  O   O6        1.0  0.41103  0.44819  0.46129  1.0000
  H   H4        1.0  0.41062  0.48490  0.55491  1.0000
  O   O7        1.0  0.49194  0.53541  0.59833  1.0000
  O   O8        1.0  0.58897  0.55181  0.53871  1.0000
  C   C13       1.0  0.00560  0.44872  0.03149  1.0000
  C   C14       1.0  0.97494  0.49654  0.05153  1.0000
  C   C15       1.0  0.96934  0.54782  0.02004  1.0000
  C   C16       1.0  0.99440  0.55128  0.96851  1.0000
  C   C17       1.0  0.02506  0.50346  0.94847  1.0000
  C   C18       1.0  0.03066  0.45218  0.97996  1.0000
  H   H5        1.0  0.00980  0.41026  0.05511  1.0000
  O   O9        1.0  0.95238  0.49342  0.09791  1.0000
  O   O10       1.0  0.94174  0.59086  0.03808  1.0000
  H   H6        1.0  0.99020  0.58974  0.94489  1.0000
  O   O11       1.0  0.04762  0.50658  0.90209  1.0000
  O   O12       1.0  0.05826  0.40914  0.96192  1.0000
  C   C19       1.0  0.05503  0.01737  0.51290  1.0000
  C   C20       1.0  0.03074  0.03994  0.46650  1.0000
  C   C21       1.0  0.97580  0.02257  0.45360  1.0000
  C   C22       1.0  0.94517  0.98263  0.48710  1.0000
  C   C23       1.0  0.96946  0.96006  0.53350  1.0000
  C   C24       1.0  0.02440  0.97743  0.54640  1.0000
  H   H7        1.0  0.09623  0.03039  0.52257  1.0000
  O   O13       1.0  0.05831  0.07588  0.43635  1.0000
  O   O14       1.0  0.95394  0.04288  0.41184  1.0000
  H   H8        1.0  0.90397  0.96961  0.47743  1.0000
  O   O15       1.0  0.94189  0.92412  0.56365  1.0000
  O   O16       1.0  0.04626  0.95712  0.58815  1.0000
  C   C25       1.0  0.01737  0.05483  0.01290  1.0000
  C   C26       1.0  0.97743  0.02420  0.04640  1.0000
  C   C27       1.0  0.96006  0.96926  0.03350  1.0000
  C   C28       1.0  0.98263  0.94497  0.98710  1.0000
  C   C29       1.0  0.02257  0.97560  0.95360  1.0000
  C   C30       1.0  0.03994  0.03054  0.96650  1.0000
  H   H9        1.0  0.03039  0.09603  0.02257  1.0000
  O   O17       1.0  0.95712  0.04606  0.08815  1.0000
  O   O18       1.0  0.92412  0.94169  0.06365  1.0000
  H   H10       1.0  0.96961  0.90377  0.97743  1.0000
  O   O19       1.0  0.04288  0.95374  0.91184  1.0000
  O   O20       1.0  0.07588  0.05811  0.93635  1.0000
  C   C31       1.0  0.44921  0.00682  0.53194  1.0000
  C   C32       1.0  0.45243  0.03127  0.48018  1.0000
  C   C33       1.0  0.50322  0.02445  0.44824  1.0000
  C   C34       1.0  0.55079  0.99318  0.46806  1.0000
  C   C35       1.0  0.54757  0.96873  0.51982  1.0000
  C   C36       1.0  0.49679  0.97555  0.55176  1.0000
  H   H11       1.0  0.41112  0.01194  0.55590  1.0000
  O   O21       1.0  0.40961  0.05942  0.46235  1.0000
  O   O22       1.0  0.50611  0.04646  0.40166  1.0000
  H   H12       1.0  0.58888  0.98806  0.44410  1.0000
  O   O23       1.0  0.59039  0.94058  0.53765  1.0000
  O   O24       1.0  0.49389  0.95354  0.59834  1.0000
  C   C37       1.0  0.49137  0.44893  0.03138  1.0000
  C   C38       1.0  0.47273  0.45317  0.97963  1.0000
  C   C39       1.0  0.48136  0.50424  0.94825  1.0000
  C   C40       1.0  0.50863  0.55107  0.96862  1.0000
  C   C41       1.0  0.52727  0.54683  0.02037  1.0000
  C   C42       1.0  0.51864  0.49576  0.05175  1.0000
  H   H13       1.0  0.48490  0.41062  0.05491  1.0000
  O   O25       1.0  0.44819  0.41103  0.96129  1.0000
  O   O26       1.0  0.46459  0.50806  0.90167  1.0000
  H   H14       1.0  0.51510  0.58938  0.94509  1.0000
  O   O27       1.0  0.55181  0.58897  0.03871  1.0000
  O   O28       1.0  0.53541  0.49194  0.09833  1.0000
  C   C43       1.0  0.94534  0.52204  0.48701  1.0000
  C   C44       1.0  0.97579  0.48427  0.45353  1.0000
  C   C45       1.0  0.03056  0.46222  0.46652  1.0000
  C   C46       1.0  0.05486  0.47796  0.51299  1.0000
  C   C47       1.0  0.02441  0.51573  0.54647  1.0000
  C   C48       1.0  0.96964  0.53778  0.53348  1.0000
  H   H15       1.0  0.90426  0.53858  0.47727  1.0000
  O   O29       1.0  0.95392  0.47011  0.41170  1.0000
  O   O30       1.0  0.05797  0.42822  0.43638  1.0000
  H   H16       1.0  0.09594  0.46142  0.52273  1.0000
  O   O31       1.0  0.04628  0.52989  0.58830  1.0000
  O   O32       1.0  0.94223  0.57178  0.56362  1.0000
  C   C49       1.0  0.47052  0.99431  0.25051  1.0000
  C   C50       1.0  0.46593  0.03270  0.29154  1.0000
  C   C51       1.0  0.50314  0.07968  0.29105  1.0000
  C   C52       1.0  0.54493  0.08827  0.24953  1.0000
  C   C53       1.0  0.54952  0.04987  0.20850  1.0000
  C   C54       1.0  0.51232  0.00289  0.20899  1.0000
  H   H17       1.0  0.44262  0.95907  0.25088  1.0000
  O   O33       1.0  0.42831  0.02497  0.32891  1.0000
  O   O34       1.0  0.49900  0.11424  0.32798  1.0000
  H   H18       1.0  0.57284  0.12350  0.24916  1.0000
  O   O35       1.0  0.58714  0.05760  0.17113  1.0000
  O   O36       1.0  0.51645  0.96834  0.17206  1.0000
  C   C55       1.0  0.44619  0.54448  0.74619  1.0000
  C   C56       1.0  0.49115  0.54641  0.70693  1.0000
  C   C57       1.0  0.53886  0.50805  0.71074  1.0000
  C   C58       1.0  0.54159  0.46775  0.75381  1.0000
  C   C59       1.0  0.49662  0.46581  0.79308  1.0000
  C   C60       1.0  0.44892  0.50418  0.78926  1.0000
  H   H19       1.0  0.41041  0.57326  0.74333  1.0000
  O   O37       1.0  0.48869  0.58269  0.66816  1.0000
  O   O38       1.0  0.57933  0.50979  0.67540  1.0000
  H   H20       1.0  0.57737  0.43897  0.75667  1.0000
  O   O39       1.0  0.49908  0.42954  0.83184  1.0000
  O   O40       1.0  0.40845  0.50244  0.82460  1.0000
  C   C61       1.0  0.00569  0.52948  0.24949  1.0000
  C   C62       1.0  0.96730  0.53407  0.20846  1.0000
  C   C63       1.0  0.92032  0.49686  0.20895  1.0000
  C   C64       1.0  0.91173  0.45507  0.25047  1.0000
  C   C65       1.0  0.95013  0.45048  0.29150  1.0000
  C   C66       1.0  0.99711  0.48768  0.29101  1.0000
  H   H21       1.0  0.04093  0.55738  0.24912  1.0000
  O   O41       1.0  0.97503  0.57169  0.17109  1.0000
  O   O42       1.0  0.88576  0.50100  0.17202  1.0000
  H   H22       1.0  0.87650  0.42716  0.25084  1.0000
  O   O43       1.0  0.94240  0.41286  0.32887  1.0000
  O   O44       1.0  0.03166  0.48355  0.32794  1.0000
  C   C67       1.0  0.08977  0.91654  0.74776  1.0000
  C   C68       1.0  0.08255  0.95260  0.79042  1.0000
  C   C69       1.0  0.03617  0.99279  0.79266  1.0000
  C   C70       1.0  0.99699  0.99690  0.75224  1.0000
  C   C71       1.0  0.00421  0.96083  0.70958  1.0000
  C   C72       1.0  0.05060  0.92065  0.70734  1.0000
  H   H23       1.0  0.12456  0.88640  0.74607  1.0000
  O   O45       1.0  0.11781  0.94890  0.82680  1.0000
  O   O46       1.0  0.02967  0.02525  0.83106  1.0000
  H   H24       1.0  0.96220  0.02704  0.75393  1.0000
  O   O47       1.0  0.96896  0.96453  0.67320  1.0000
  O   O48       1.0  0.05709  0.88819  0.66894  1.0000
  C   C73       1.0  0.45507  0.91173  0.75047  1.0000
  C   C74       1.0  0.49686  0.92032  0.70895  1.0000
  C   C75       1.0  0.53407  0.96730  0.70846  1.0000
  C   C76       1.0  0.52948  0.00569  0.74949  1.0000
  C   C77       1.0  0.48768  0.99711  0.79101  1.0000
  C   C78       1.0  0.45048  0.95013  0.79150  1.0000
  H   H25       1.0  0.42716  0.87650  0.75084  1.0000
  O   O49       1.0  0.50100  0.88576  0.67202  1.0000
  O   O50       1.0  0.57169  0.97503  0.67109  1.0000
  H   H26       1.0  0.55738  0.04093  0.74912  1.0000
  O   O51       1.0  0.48355  0.03166  0.82794  1.0000
  O   O52       1.0  0.41286  0.94240  0.82887  1.0000
  C   C79       1.0  0.55381  0.45552  0.25381  1.0000
  C   C80       1.0  0.50885  0.45359  0.29307  1.0000
  C   C81       1.0  0.46114  0.49195  0.28926  1.0000
  C   C82       1.0  0.45841  0.53225  0.24619  1.0000
  C   C83       1.0  0.50338  0.53419  0.20692  1.0000
  C   C84       1.0  0.55108  0.49582  0.21074  1.0000
  H   H27       1.0  0.58959  0.42674  0.25667  1.0000
  O   O53       1.0  0.51131  0.41731  0.33184  1.0000
  O   O54       1.0  0.42067  0.49021  0.32460  1.0000
  H   H28       1.0  0.42263  0.56103  0.24333  1.0000
  O   O55       1.0  0.50092  0.57046  0.16816  1.0000
  O   O56       1.0  0.59155  0.49756  0.17540  1.0000
  C   C85       1.0  0.08849  0.54456  0.74927  1.0000
  C   C86       1.0  0.04993  0.54934  0.70836  1.0000
  C   C87       1.0  0.00263  0.51251  0.70912  1.0000
  C   C88       1.0  0.99389  0.47090  0.75077  1.0000
  C   C89       1.0  0.03244  0.46612  0.79168  1.0000
  C   C90       1.0  0.07974  0.50295  0.79092  1.0000
  H   H29       1.0  0.12397  0.57218  0.74870  1.0000
  O   O57       1.0  0.05781  0.58678  0.67087  1.0000
  O   O58       1.0  0.96793  0.51681  0.67231  1.0000
  H   H30       1.0  0.95841  0.44327  0.75134  1.0000
  O   O59       1.0  0.02457  0.42867  0.82917  1.0000
  O   O60       1.0  0.11444  0.49865  0.82773  1.0000
  C   C91       1.0  0.99690  0.99699  0.25224  1.0000
  C   C92       1.0  0.99279  0.03617  0.29266  1.0000
  C   C93       1.0  0.95260  0.08255  0.29042  1.0000
  C   C94       1.0  0.91654  0.08977  0.24776  1.0000
  C   C95       1.0  0.92065  0.05060  0.20734  1.0000
  C   C96       1.0  0.96083  0.00421  0.20958  1.0000
  H   H31       1.0  0.02704  0.96220  0.25393  1.0000
  O   O61       1.0  0.02525  0.02967  0.33106  1.0000
  O   O62       1.0  0.94890  0.11781  0.32680  1.0000
  H   H32       1.0  0.88640  0.12456  0.24607  1.0000
  O   O63       1.0  0.88819  0.05710  0.16894  1.0000
  O   O64       1.0  0.96453  0.96896  0.17320  1.0000
  C   C97       1.0  0.74139  0.95103  0.15977  1.0000
  C   C98       1.0  0.68969  0.97229  0.13873  1.0000
  C   C99       1.0  0.69128  0.01468  0.09715  1.0000
  C   C100      1.0  0.74457  0.03580  0.07660  1.0000
  C   C101      1.0  0.79627  0.01455  0.09764  1.0000
  C   C102      1.0  0.79468  0.97216  0.13922  1.0000
  H   H33       1.0  0.74019  0.91925  0.19096  1.0000
  O   O65       1.0  0.64173  0.95328  0.15723  1.0000
  O   O66       1.0  0.64475  0.03381  0.07822  1.0000
  H   H34       1.0  0.74577  0.06759  0.04541  1.0000
  O   O67       1.0  0.84423  0.03356  0.07914  1.0000
  O   O68       1.0  0.84121  0.95303  0.15816  1.0000
  C   C103      1.0  0.51548  0.74536  0.58114  1.0000
  C   C104      1.0  0.53779  0.69096  0.59800  1.0000
  C   C105      1.0  0.58377  0.68710  0.63197  1.0000
  C   C106      1.0  0.60744  0.73765  0.64908  1.0000
  C   C107      1.0  0.58513  0.79205  0.63223  1.0000
  C   C108      1.0  0.53915  0.79591  0.59826  1.0000
  H   H35       1.0  0.48100  0.74826  0.55567  1.0000
  O   O69       1.0  0.51649  0.64546  0.58259  1.0000
  O   O70       1.0  0.60385  0.63813  0.64713  1.0000
  H   H36       1.0  0.64193  0.73475  0.67456  1.0000
  O   O71       1.0  0.60644  0.83755  0.64763  1.0000
  O   O72       1.0  0.51908  0.84488  0.58309  1.0000
  C   C109      1.0  0.73765  0.60744  0.14908  1.0000
  C   C110      1.0  0.68710  0.58377  0.13197  1.0000
  C   C111      1.0  0.69096  0.53779  0.09800  1.0000
  C   C112      1.0  0.74536  0.51548  0.08114  1.0000
  C   C113      1.0  0.79591  0.53915  0.09826  1.0000
  C   C114      1.0  0.79205  0.58513  0.13223  1.0000
  H   H37       1.0  0.73475  0.64193  0.17456  1.0000
  O   O73       1.0  0.63813  0.60385  0.14713  1.0000
  O   O74       1.0  0.64546  0.51649  0.08259  1.0000
  H   H38       1.0  0.74826  0.48100  0.05567  1.0000
  O   O75       1.0  0.84488  0.51908  0.08309  1.0000
  O   O76       1.0  0.83755  0.60644  0.14763  1.0000
  C   C115      1.0  0.95072  0.74141  0.65950  1.0000
  C   C116      1.0  0.97200  0.79469  0.63909  1.0000
  C   C117      1.0  0.01470  0.79626  0.59777  1.0000
  C   C118      1.0  0.03612  0.74455  0.57687  1.0000
  C   C119      1.0  0.01484  0.69127  0.59728  1.0000
  C   C120      1.0  0.97213  0.68970  0.63860  1.0000
  H   H39       1.0  0.91869  0.74024  0.69049  1.0000
  O   O77       1.0  0.95273  0.84123  0.65790  1.0000
  O   O78       1.0  0.03386  0.84421  0.57940  1.0000
  H   H40       1.0  0.06815  0.74572  0.54588  1.0000
  O   O79       1.0  0.03411  0.64473  0.57847  1.0000
  O   O80       1.0  0.95298  0.64175  0.65697  1.0000
  C   C121      1.0  0.25861  0.04897  0.84023  1.0000
  C   C122      1.0  0.31031  0.02771  0.86127  1.0000
  C   C123      1.0  0.30872  0.98532  0.90285  1.0000
  C   C124      1.0  0.25543  0.96420  0.92340  1.0000
  C   C125      1.0  0.20373  0.98545  0.90236  1.0000
  C   C126      1.0  0.20532  0.02784  0.86078  1.0000
  H   H41       1.0  0.25981  0.08075  0.80904  1.0000
  O   O81       1.0  0.35827  0.04672  0.84277  1.0000
  O   O82       1.0  0.35525  0.96619  0.92178  1.0000
  H   H42       1.0  0.25423  0.93241  0.95459  1.0000
  O   O83       1.0  0.15577  0.96644  0.92086  1.0000
  O   O84       1.0  0.15879  0.04697  0.84184  1.0000
  C   C127      1.0  0.39213  0.26234  0.35140  1.0000
  C   C128      1.0  0.41465  0.20794  0.36801  1.0000
  C   C129      1.0  0.46106  0.20409  0.40150  1.0000
  C   C130      1.0  0.48495  0.25465  0.41838  1.0000
  C   C131      1.0  0.46242  0.30905  0.40176  1.0000
  C   C132      1.0  0.41601  0.31289  0.36827  1.0000
  H   H43       1.0  0.35732  0.26522  0.32628  1.0000
  O   O85       1.0  0.39315  0.16244  0.35283  1.0000
  O   O86       1.0  0.48133  0.15513  0.41646  1.0000
  H   H44       1.0  0.51975  0.25176  0.44349  1.0000
  O   O87       1.0  0.48392  0.35455  0.41695  1.0000
  O   O88       1.0  0.39574  0.36185  0.35332  1.0000
  C   C133      1.0  0.25464  0.48452  0.91886  1.0000
  C   C134      1.0  0.30904  0.46221  0.90200  1.0000
  C   C135      1.0  0.31290  0.41623  0.86803  1.0000
  C   C136      1.0  0.26235  0.39256  0.85092  1.0000
  C   C137      1.0  0.20795  0.41487  0.86777  1.0000
  C   C138      1.0  0.20409  0.46085  0.90174  1.0000
  H   H45       1.0  0.25174  0.51900  0.94433  1.0000
  O   O89       1.0  0.35454  0.48351  0.91741  1.0000
  O   O90       1.0  0.36187  0.39615  0.85287  1.0000
  H   H46       1.0  0.26525  0.35807  0.82544  1.0000
  O   O91       1.0  0.16245  0.39356  0.85237  1.0000
  O   O92       1.0  0.15512  0.48092  0.91691  1.0000
  C   C139      1.0  0.96420  0.25543  0.42340  1.0000
  C   C140      1.0  0.98532  0.30872  0.40285  1.0000
  C   C141      1.0  0.02771  0.31031  0.36127  1.0000
  C   C142      1.0  0.04897  0.25861  0.34023  1.0000
  C   C143      1.0  0.02784  0.20532  0.36078  1.0000
  C   C144      1.0  0.98545  0.20373  0.40236  1.0000
  H   H47       1.0  0.93241  0.25423  0.45459  1.0000
  O   O93       1.0  0.96619  0.35525  0.42178  1.0000
  O   O94       1.0  0.04672  0.35827  0.34277  1.0000
  H   H48       1.0  0.08075  0.25981  0.30904  1.0000
  O   O95       1.0  0.04697  0.15879  0.34184  1.0000
  O   O96       1.0  0.96644  0.15577  0.42086  1.0000
