data_image0
_chemical_formula_structural       Fe16C6HO2HO2C6HO2HO2C6HO2HO2C6HO2HO2C6HO2HO2C6HO2HO2C6HO2HO2C6HO2HO2C6HO2HO2C6HO2HO2C6HO2HO2C6HO2HO2C6HO2HO2C6HO2HO2C6HO2HO2C6HO2HO2C6HO2HO2C6HO2HO2C6HO2HO2C6HO2HO2C6HO2HO2C6HO2HO2C6HO2HO2C6HO2HO2
_chemical_formula_sum              "Fe16 C144 H48 O96"
_cell_length_a       12.8537
_cell_length_b       47.4849
_cell_length_c       24.0251
_cell_angle_alpha    88.6622
_cell_angle_beta     90
_cell_angle_gamma    90

_space_group_name_H-M_alt    "P 1"
_space_group_IT_number       1

loop_
  _space_group_symop_operation_xyz
  'x, y, z'

loop_
  _atom_site_type_symbol
  _atom_site_label
  _atom_site_symmetry_multiplicity
  _atom_site_fract_x
  _atom_site_fract_y
  _atom_site_fract_z
  _atom_site_occupancy
  Fe  Fe1       1.0  0.00010  0.29033  0.00010  1.0000
  Fe  Fe2       1.0  0.00010  0.70943  0.47903  1.0000
  Fe  Fe3       1.0  0.00010  0.70967  0.99990  1.0000
  Fe  Fe4       1.0  0.00010  0.29057  0.52097  1.0000
  Fe  Fe5       1.0  0.50000  0.79033  0.00010  1.0000
  Fe  Fe6       1.0  0.50000  0.20943  0.47903  1.0000
  Fe  Fe7       1.0  0.50000  0.20967  0.99990  1.0000
  Fe  Fe8       1.0  0.50000  0.79057  0.52097  1.0000
  Fe  Fe9       1.0  0.00010  0.43852  0.09830  1.0000
  Fe  Fe10      1.0  0.00010  0.56114  0.59205  1.0000
  Fe  Fe11      1.0  0.00010  0.56148  0.90170  1.0000
  Fe  Fe12      1.0  0.00010  0.43886  0.40795  1.0000
  Fe  Fe13      1.0  0.50000  0.93852  0.09830  1.0000
  Fe  Fe14      1.0  0.50000  0.06114  0.59205  1.0000
  Fe  Fe15      1.0  0.50000  0.06148  0.90170  1.0000
  Fe  Fe16      1.0  0.50000  0.93886  0.40795  1.0000
  C   C1        1.0  0.91112  0.48921  0.97453  1.0000
  C   C2        1.0  0.95561  0.47487  0.02020  1.0000
  C   C3        1.0  0.04459  0.48566  0.04568  1.0000
  C   C4        1.0  0.08908  0.51080  0.02547  1.0000
  C   C5        1.0  0.04459  0.52513  0.97980  1.0000
  C   C6        1.0  0.95561  0.51434  0.95432  1.0000
  H   H1        1.0  0.84439  0.48111  0.95542  1.0000
  O   O1        1.0  0.91557  0.45224  0.03838  1.0000
  O   O2        1.0  0.08463  0.47275  0.08679  1.0000
  H   H2        1.0  0.15581  0.51889  0.04458  1.0000
  O   O3        1.0  0.08463  0.54776  0.96162  1.0000
  O   O4        1.0  0.91557  0.52725  0.91322  1.0000
  C   C7        1.0  0.08908  0.51081  0.47356  1.0000
  C   C8        1.0  0.04459  0.48569  0.45561  1.0000
  C   C9        1.0  0.95561  0.47488  0.48205  1.0000
  C   C10       1.0  0.91112  0.48919  0.52644  1.0000
  C   C11       1.0  0.95561  0.51431  0.54439  1.0000
  C   C12       1.0  0.04459  0.52512  0.51795  1.0000
  H   H3        1.0  0.15582  0.51892  0.45373  1.0000
  O   O5        1.0  0.08464  0.47281  0.41566  1.0000
  O   O6        1.0  0.91556  0.45227  0.46589  1.0000
  H   H4        1.0  0.84438  0.48108  0.54627  1.0000
  O   O7        1.0  0.91556  0.52719  0.58434  1.0000
  O   O8        1.0  0.08464  0.54773  0.53411  1.0000
  C   C13       1.0  0.41102  0.98921  0.97453  1.0000
  C   C14       1.0  0.45551  0.97487  0.02020  1.0000
  C   C15       1.0  0.54449  0.98566  0.04568  1.0000
  C   C16       1.0  0.58898  0.01079  0.02547  1.0000
  C   C17       1.0  0.54449  0.02513  0.97980  1.0000
  C   C18       1.0  0.45551  0.01434  0.95432  1.0000
  H   H5        1.0  0.34429  0.98111  0.95542  1.0000
  O   O9        1.0  0.41547  0.95224  0.03838  1.0000
  O   O10       1.0  0.58453  0.97275  0.08679  1.0000
  H   H6        1.0  0.65571  0.01889  0.04458  1.0000
  O   O11       1.0  0.58453  0.04776  0.96162  1.0000
  O   O12       1.0  0.41547  0.02725  0.91322  1.0000
  C   C19       1.0  0.58898  0.01081  0.47356  1.0000
  C   C20       1.0  0.54449  0.98569  0.45561  1.0000
  C   C21       1.0  0.45551  0.97488  0.48205  1.0000
  C   C22       1.0  0.41102  0.98919  0.52644  1.0000
  C   C23       1.0  0.45551  0.01431  0.54439  1.0000
  C   C24       1.0  0.54449  0.02512  0.51795  1.0000
  H   H7        1.0  0.65572  0.01892  0.45373  1.0000
  O   O13       1.0  0.58454  0.97281  0.41566  1.0000
  O   O14       1.0  0.41546  0.95227  0.46590  1.0000
  H   H8        1.0  0.34428  0.98108  0.54627  1.0000
  O   O15       1.0  0.41546  0.02719  0.58434  1.0000
  O   O16       1.0  0.58454  0.04773  0.53410  1.0000
  C   C25       1.0  0.08908  0.37122  0.01230  1.0000
  C   C26       1.0  0.04459  0.39219  0.04468  1.0000
  C   C27       1.0  0.95561  0.38626  0.07645  1.0000
  C   C28       1.0  0.91112  0.35936  0.07583  1.0000
  C   C29       1.0  0.95561  0.33838  0.04345  1.0000
  C   C30       1.0  0.04459  0.34432  0.01169  1.0000
  H   H9        1.0  0.15582  0.37567  0.98847  1.0000
  O   O17       1.0  0.08463  0.41640  0.04523  1.0000
  O   O18       1.0  0.91557  0.40513  0.10559  1.0000
  H   H10       1.0  0.84438  0.35491  0.09966  1.0000
  O   O19       1.0  0.91557  0.31417  0.04290  1.0000
  O   O20       1.0  0.08463  0.32544  0.98254  1.0000
  C   C31       1.0  0.08904  0.64061  0.55824  1.0000
  C   C32       1.0  0.04457  0.61375  0.56319  1.0000
  C   C33       1.0  0.95563  0.60726  0.53239  1.0000
  C   C34       1.0  0.91116  0.62762  0.49666  1.0000
  C   C35       1.0  0.95563  0.65448  0.49172  1.0000
  C   C36       1.0  0.04457  0.66097  0.52251  1.0000
  H   H11       1.0  0.15575  0.64548  0.58134  1.0000
  O   O21       1.0  0.08459  0.59543  0.59535  1.0000
  O   O22       1.0  0.91560  0.58309  0.53684  1.0000
  H   H12       1.0  0.84445  0.62275  0.47356  1.0000
  O   O23       1.0  0.91560  0.67281  0.45955  1.0000
  O   O24       1.0  0.08459  0.68514  0.51806  1.0000
  C   C37       1.0  0.06329  0.64309  0.91096  1.0000
  C   C38       1.0  0.03169  0.61497  0.91690  1.0000
  C   C39       1.0  0.96851  0.60659  0.96177  1.0000
  C   C40       1.0  0.93691  0.62634  0.00010  1.0000
  C   C41       1.0  0.96851  0.65446  0.99477  1.0000
  C   C42       1.0  0.03169  0.66284  0.94990  1.0000
  H   H13       1.0  0.11068  0.64937  0.87731  1.0000
  O   O25       1.0  0.06013  0.59719  0.88186  1.0000
  O   O26       1.0  0.94007  0.58128  0.96712  1.0000
  H   H14       1.0  0.88952  0.62005  0.03436  1.0000
  O   O27       1.0  0.94007  0.67223  0.02980  1.0000
  O   O28       1.0  0.06013  0.68815  0.94455  1.0000
  C   C43       1.0  0.91116  0.35939  0.44176  1.0000
  C   C44       1.0  0.95563  0.38625  0.43681  1.0000
  C   C45       1.0  0.04457  0.39274  0.46761  1.0000
  C   C46       1.0  0.08904  0.37238  0.50334  1.0000
  C   C47       1.0  0.04457  0.34552  0.50828  1.0000
  C   C48       1.0  0.95563  0.33903  0.47749  1.0000
  H   H15       1.0  0.84445  0.35452  0.41866  1.0000
  O   O29       1.0  0.91561  0.40457  0.40465  1.0000
  O   O30       1.0  0.08460  0.41691  0.46316  1.0000
  H   H16       1.0  0.15575  0.37725  0.52644  1.0000
  O   O31       1.0  0.08460  0.32720  0.54045  1.0000
  O   O32       1.0  0.91561  0.31486  0.48194  1.0000
  C   C49       1.0  0.58898  0.87122  0.01230  1.0000
  C   C50       1.0  0.54449  0.89219  0.04468  1.0000
  C   C51       1.0  0.45551  0.88626  0.07645  1.0000
  C   C52       1.0  0.41102  0.85935  0.07583  1.0000
  C   C53       1.0  0.45551  0.83838  0.04345  1.0000
  C   C54       1.0  0.54449  0.84432  0.01169  1.0000
  H   H17       1.0  0.65572  0.87567  0.98847  1.0000
  O   O33       1.0  0.58453  0.91640  0.04523  1.0000
  O   O34       1.0  0.41547  0.90513  0.10559  1.0000
  H   H18       1.0  0.34428  0.85491  0.09966  1.0000
  O   O35       1.0  0.41547  0.81417  0.04290  1.0000
  O   O36       1.0  0.58453  0.82544  0.98254  1.0000
  C   C55       1.0  0.43570  0.12504  0.48439  1.0000
  C   C56       1.0  0.46785  0.10597  0.52626  1.0000
  C   C57       1.0  0.53215  0.11505  0.56932  1.0000
  C   C58       1.0  0.56430  0.14320  0.57051  1.0000
  C   C59       1.0  0.53215  0.16227  0.52865  1.0000
  C   C60       1.0  0.46785  0.15319  0.48559  1.0000
  H   H19       1.0  0.38747  0.11823  0.45210  1.0000
  O   O37       1.0  0.43891  0.08064  0.52519  1.0000
  O   O38       1.0  0.56109  0.09789  0.60700  1.0000
  H   H20       1.0  0.61253  0.15001  0.60281  1.0000
  O   O39       1.0  0.56109  0.18760  0.52972  1.0000
  O   O40       1.0  0.43891  0.17035  0.44791  1.0000
  C   C61       1.0  0.41102  0.12878  0.98770  1.0000
  C   C62       1.0  0.45551  0.10781  0.95532  1.0000
  C   C63       1.0  0.54449  0.11374  0.92355  1.0000
  C   C64       1.0  0.58898  0.14065  0.92417  1.0000
  C   C65       1.0  0.54449  0.16162  0.95655  1.0000
  C   C66       1.0  0.45551  0.15568  0.98831  1.0000
  H   H21       1.0  0.34428  0.12433  0.01153  1.0000
  O   O41       1.0  0.41547  0.08360  0.95477  1.0000
  O   O42       1.0  0.58453  0.09487  0.89441  1.0000
  H   H22       1.0  0.65572  0.14509  0.90034  1.0000
  O   O43       1.0  0.58453  0.18583  0.95710  1.0000
  O   O44       1.0  0.41547  0.17456  0.01746  1.0000
  C   C67       1.0  0.41106  0.85939  0.44175  1.0000
  C   C68       1.0  0.45553  0.88624  0.43681  1.0000
  C   C69       1.0  0.54447  0.89274  0.46761  1.0000
  C   C70       1.0  0.58894  0.87237  0.50334  1.0000
  C   C71       1.0  0.54447  0.84552  0.50828  1.0000
  C   C72       1.0  0.45553  0.83903  0.47749  1.0000
  H   H23       1.0  0.34435  0.85452  0.41866  1.0000
  O   O45       1.0  0.41550  0.90457  0.40465  1.0000
  O   O46       1.0  0.58449  0.91691  0.46316  1.0000
  H   H24       1.0  0.65565  0.87724  0.52643  1.0000
  O   O47       1.0  0.58450  0.82719  0.54044  1.0000
  O   O48       1.0  0.41551  0.81486  0.48193  1.0000
  C   C73       1.0  0.26880  0.26095  0.05256  1.0000
  C   C74       1.0  0.17925  0.26887  0.02295  1.0000
  C   C75       1.0  0.16044  0.25792  0.97030  1.0000
  C   C76       1.0  0.23120  0.23905  0.94724  1.0000
  C   C77       1.0  0.32075  0.23113  0.97685  1.0000
  C   C78       1.0  0.33956  0.24208  0.02950  1.0000
  H   H25       1.0  0.28291  0.26916  0.09205  1.0000
  O   O49       1.0  0.11557  0.28585  0.04370  1.0000
  O   O50       1.0  0.07984  0.26505  0.94365  1.0000
  H   H26       1.0  0.21709  0.23084  0.90775  1.0000
  O   O51       1.0  0.38443  0.21415  0.95610  1.0000
  O   O52       1.0  0.42016  0.23495  0.05615  1.0000
  C   C79       1.0  0.75728  0.76614  0.45064  1.0000
  C   C80       1.0  0.67631  0.77099  0.48820  1.0000
  C   C81       1.0  0.66913  0.75484  0.53755  1.0000
  C   C82       1.0  0.74292  0.73385  0.54935  1.0000
  C   C83       1.0  0.82389  0.72901  0.51180  1.0000
  C   C84       1.0  0.83107  0.74516  0.46244  1.0000
  H   H27       1.0  0.76267  0.77825  0.41362  1.0000
  O   O53       1.0  0.60989  0.78987  0.47758  1.0000
  O   O54       1.0  0.59625  0.75920  0.57135  1.0000
  H   H28       1.0  0.73753  0.72174  0.58637  1.0000
  O   O55       1.0  0.89031  0.71012  0.52241  1.0000
  O   O56       1.0  0.90395  0.74080  0.42864  1.0000
  C   C85       1.0  0.20460  0.76791  0.95986  1.0000
  C   C86       1.0  0.14715  0.74556  0.98326  1.0000
  C   C87       1.0  0.19254  0.72765  0.02349  1.0000
  C   C88       1.0  0.29540  0.73209  0.04034  1.0000
  C   C89       1.0  0.35285  0.75444  0.01694  1.0000
  C   C90       1.0  0.30746  0.77235  0.97671  1.0000
  H   H29       1.0  0.17056  0.78134  0.92968  1.0000
  O   O57       1.0  0.05458  0.74156  0.96810  1.0000
  O   O58       1.0  0.14083  0.70753  0.04455  1.0000
  H   H30       1.0  0.32944  0.71866  0.07052  1.0000
  O   O59       1.0  0.44542  0.75844  0.03210  1.0000
  O   O60       1.0  0.35917  0.79247  0.95565  1.0000
  C   C91       1.0  0.69274  0.26434  0.53997  1.0000
  C   C92       1.0  0.64403  0.24426  0.50711  1.0000
  C   C93       1.0  0.70140  0.22992  0.46714  1.0000
  C   C94       1.0  0.80746  0.23566  0.46004  1.0000
  C   C95       1.0  0.85617  0.25574  0.49290  1.0000
  C   C96       1.0  0.79880  0.27009  0.53287  1.0000
  H   H31       1.0  0.64971  0.27510  0.56995  1.0000
  O   O61       1.0  0.54858  0.23909  0.51350  1.0000
  O   O62       1.0  0.65757  0.21184  0.43757  1.0000
  H   H32       1.0  0.85049  0.22490  0.43006  1.0000
  O   O63       1.0  0.95162  0.26091  0.48650  1.0000
  O   O64       1.0  0.84263  0.28816  0.56244  1.0000
  C   C97       1.0  0.73130  0.73905  0.94724  1.0000
  C   C98       1.0  0.66054  0.75792  0.97030  1.0000
  C   C99       1.0  0.67935  0.76887  0.02295  1.0000
  C   C100      1.0  0.76890  0.76095  0.05256  1.0000
  C   C101      1.0  0.83966  0.74208  0.02950  1.0000
  C   C102      1.0  0.82085  0.73113  0.97685  1.0000
  H   H33       1.0  0.71719  0.73084  0.90775  1.0000
  O   O65       1.0  0.57994  0.76505  0.94365  1.0000
  O   O66       1.0  0.61567  0.78585  0.04370  1.0000
  H   H34       1.0  0.78301  0.76916  0.09205  1.0000
  O   O67       1.0  0.92026  0.73495  0.05615  1.0000
  O   O68       1.0  0.88453  0.71415  0.95610  1.0000
  C   C103      1.0  0.25718  0.26615  0.45065  1.0000
  C   C104      1.0  0.17621  0.27099  0.48820  1.0000
  C   C105      1.0  0.16903  0.25484  0.53756  1.0000
  C   C106      1.0  0.24282  0.23385  0.54936  1.0000
  C   C107      1.0  0.32379  0.22901  0.51180  1.0000
  C   C108      1.0  0.33098  0.24516  0.46245  1.0000
  H   H35       1.0  0.26257  0.27826  0.41363  1.0000
  O   O69       1.0  0.10980  0.28988  0.47759  1.0000
  O   O70       1.0  0.09615  0.25920  0.57136  1.0000
  H   H36       1.0  0.23743  0.22174  0.58638  1.0000
  O   O71       1.0  0.39020  0.21013  0.52242  1.0000
  O   O72       1.0  0.40385  0.24080  0.42865  1.0000
  C   C109      1.0  0.79540  0.23209  0.04014  1.0000
  C   C110      1.0  0.85285  0.25444  0.01674  1.0000
  C   C111      1.0  0.80746  0.27235  0.97651  1.0000
  C   C112      1.0  0.70460  0.26791  0.95966  1.0000
  C   C113      1.0  0.64715  0.24556  0.98306  1.0000
  C   C114      1.0  0.69254  0.22765  0.02329  1.0000
  H   H37       1.0  0.82944  0.21866  0.07032  1.0000
  O   O73       1.0  0.94542  0.25844  0.03190  1.0000
  O   O74       1.0  0.85917  0.29247  0.95545  1.0000
  H   H38       1.0  0.67056  0.28134  0.92948  1.0000
  O   O75       1.0  0.55458  0.24156  0.96790  1.0000
  O   O76       1.0  0.64083  0.20753  0.04435  1.0000
  C   C115      1.0  0.30746  0.73566  0.46003  1.0000
  C   C116      1.0  0.35617  0.75574  0.49289  1.0000
  C   C117      1.0  0.29880  0.77008  0.53286  1.0000
  C   C118      1.0  0.19274  0.76434  0.53996  1.0000
  C   C119      1.0  0.14403  0.74426  0.50710  1.0000
  C   C120      1.0  0.20140  0.72991  0.46713  1.0000
  H   H39       1.0  0.35049  0.72490  0.43005  1.0000
  O   O77       1.0  0.45162  0.76091  0.48650  1.0000
  O   O78       1.0  0.34263  0.78816  0.56243  1.0000
  H   H40       1.0  0.14971  0.77510  0.56994  1.0000
  O   O79       1.0  0.04858  0.73909  0.51350  1.0000
  O   O80       1.0  0.15757  0.71184  0.43756  1.0000
  C   C121      1.0  0.91100  0.45886  0.25209  1.0000
  C   C122      1.0  0.95555  0.45031  0.20207  1.0000
  C   C123      1.0  0.04465  0.43335  0.20294  1.0000
  C   C124      1.0  0.08920  0.42494  0.25384  1.0000
  C   C125      1.0  0.04465  0.43349  0.30387  1.0000
  C   C126      1.0  0.95555  0.45045  0.30299  1.0000
  H   H41       1.0  0.84417  0.47158  0.25144  1.0000
  O   O81       1.0  0.91545  0.45788  0.15626  1.0000
  O   O82       1.0  0.08475  0.42565  0.15792  1.0000
  H   H42       1.0  0.15603  0.41222  0.25450  1.0000
  O   O83       1.0  0.08475  0.42592  0.34968  1.0000
  O   O84       1.0  0.91545  0.45814  0.34802  1.0000
  C   C127      1.0  0.91100  0.57507  0.74616  1.0000
  C   C128      1.0  0.95555  0.56651  0.69613  1.0000
  C   C129      1.0  0.04465  0.54955  0.69701  1.0000
  C   C130      1.0  0.08920  0.54114  0.74791  1.0000
  C   C131      1.0  0.04465  0.54969  0.79793  1.0000
  C   C132      1.0  0.95555  0.56665  0.79706  1.0000
  H   H43       1.0  0.84418  0.58779  0.74550  1.0000
  O   O85       1.0  0.91546  0.57408  0.65032  1.0000
  O   O86       1.0  0.08474  0.54185  0.65198  1.0000
  H   H44       1.0  0.15602  0.52842  0.74856  1.0000
  O   O87       1.0  0.08474  0.54212  0.84374  1.0000
  O   O88       1.0  0.91546  0.57435  0.84208  1.0000
  C   C133      1.0  0.58910  0.92493  0.25384  1.0000
  C   C134      1.0  0.54455  0.93349  0.30387  1.0000
  C   C135      1.0  0.45545  0.95045  0.30299  1.0000
  C   C136      1.0  0.41090  0.95886  0.25209  1.0000
  C   C137      1.0  0.45545  0.95031  0.20207  1.0000
  C   C138      1.0  0.54455  0.93335  0.20295  1.0000
  H   H45       1.0  0.65592  0.91221  0.25450  1.0000
  O   O89       1.0  0.58464  0.92592  0.34968  1.0000
  O   O90       1.0  0.41536  0.95815  0.34802  1.0000
  H   H46       1.0  0.34408  0.97158  0.25144  1.0000
  O   O91       1.0  0.41536  0.95788  0.15626  1.0000
  O   O92       1.0  0.58464  0.92565  0.15792  1.0000
  C   C139      1.0  0.58910  0.04114  0.74790  1.0000
  C   C140      1.0  0.54455  0.04969  0.79793  1.0000
  C   C141      1.0  0.45545  0.06665  0.79705  1.0000
  C   C142      1.0  0.41090  0.07506  0.74616  1.0000
  C   C143      1.0  0.45545  0.06651  0.69613  1.0000
  C   C144      1.0  0.54455  0.04955  0.69701  1.0000
  H   H47       1.0  0.65593  0.02842  0.74856  1.0000
  O   O93       1.0  0.58465  0.04212  0.84374  1.0000
  O   O94       1.0  0.41535  0.07435  0.84208  1.0000
  H   H48       1.0  0.34407  0.08778  0.74550  1.0000
  O   O95       1.0  0.41535  0.07408  0.65032  1.0000
  O   O96       1.0  0.58465  0.04186  0.65198  1.0000
