data_image0
_chemical_formula_structural       C18HO2H2O2H2O2HC18HO2H2O2H2O2HC18HO2H2O2H2O2HC18HO2H2O2H2O2HC18HO2H2O2H2O2HC18HO2H2O2H2O2HC18HO2H2O2H2O2HC18HO2H2O2H2O2HZn2Cu10
_chemical_formula_sum              "C144 H48 O48 Zn2 Cu10"
_cell_length_a       21.2298
_cell_length_b       21.2298
_cell_length_c       73.5414
_cell_angle_alpha    90
_cell_angle_beta     90
_cell_angle_gamma    90

_space_group_name_H-M_alt    "P 1"
_space_group_IT_number       1

loop_
  _space_group_symop_operation_xyz
  'x, y, z'

loop_
  _atom_site_type_symbol
  _atom_site_label
  _atom_site_symmetry_multiplicity
  _atom_site_fract_x
  _atom_site_fract_y
  _atom_site_fract_z
  _atom_site_occupancy
  C   C1        1.0  0.50000  0.03307  0.09982  1.0000
  C   C2        1.0  0.50000  0.06605  0.08333  1.0000
  C   C3        1.0  0.50000  0.03307  0.06685  1.0000
  C   C4        1.0  0.50000  0.96713  0.06685  1.0000
  C   C5        1.0  0.50000  0.93415  0.08333  1.0000
  C   C6        1.0  0.50000  0.96713  0.09982  1.0000
  C   C7        1.0  0.50000  0.93416  0.05036  1.0000
  C   C8        1.0  0.50000  0.96713  0.03387  1.0000
  C   C9        1.0  0.50000  0.03307  0.03387  1.0000
  C   C10       1.0  0.50000  0.06605  0.05036  1.0000
  C   C11       1.0  0.50000  0.06604  0.11631  1.0000
  C   C12       1.0  0.50000  0.13199  0.11631  1.0000
  C   C13       1.0  0.50000  0.16496  0.09982  1.0000
  C   C14       1.0  0.50000  0.13199  0.08333  1.0000
  C   C15       1.0  0.50000  0.93415  0.11631  1.0000
  C   C16       1.0  0.50000  0.86821  0.11631  1.0000
  C   C17       1.0  0.50000  0.83524  0.09982  1.0000
  C   C18       1.0  0.50000  0.86821  0.08333  1.0000
  H   H1        1.0  0.50000  0.88470  0.05036  1.0000
  O   O1        1.0  0.50000  0.93745  0.01904  1.0000
  O   O2        1.0  0.50000  0.06275  0.01904  1.0000
  H   H2        1.0  0.50000  0.11550  0.05036  1.0000
  H   H3        1.0  0.50000  0.04132  0.12867  1.0000
  O   O3        1.0  0.50000  0.16166  0.13114  1.0000
  O   O4        1.0  0.50000  0.22431  0.09982  1.0000
  H   H4        1.0  0.50000  0.15672  0.07097  1.0000
  H   H5        1.0  0.50000  0.95888  0.12867  1.0000
  O   O5        1.0  0.50000  0.83853  0.13114  1.0000
  O   O6        1.0  0.50000  0.77589  0.09982  1.0000
  H   H6        1.0  0.50000  0.84348  0.07097  1.0000
  C   C19       1.0  0.96713  0.50000  0.56685  1.0000
  C   C20       1.0  0.03307  0.50000  0.56685  1.0000
  C   C21       1.0  0.06605  0.50000  0.58333  1.0000
  C   C22       1.0  0.03307  0.50000  0.59982  1.0000
  C   C23       1.0  0.96713  0.50000  0.59982  1.0000
  C   C24       1.0  0.93415  0.50000  0.58333  1.0000
  C   C25       1.0  0.06605  0.50000  0.61631  1.0000
  C   C26       1.0  0.13199  0.50000  0.61631  1.0000
  C   C27       1.0  0.16496  0.50000  0.59982  1.0000
  C   C28       1.0  0.13199  0.50000  0.58333  1.0000
  C   C29       1.0  0.93415  0.50000  0.55036  1.0000
  C   C30       1.0  0.96713  0.50000  0.53387  1.0000
  C   C31       1.0  0.03307  0.50000  0.53387  1.0000
  C   C32       1.0  0.06605  0.50000  0.55036  1.0000
  C   C33       1.0  0.86821  0.50000  0.58333  1.0000
  C   C34       1.0  0.83524  0.50000  0.59982  1.0000
  C   C35       1.0  0.86821  0.50000  0.61631  1.0000
  C   C36       1.0  0.93415  0.50000  0.61631  1.0000
  H   H7        1.0  0.04132  0.50000  0.62867  1.0000
  O   O7        1.0  0.16167  0.50000  0.63114  1.0000
  O   O8        1.0  0.22431  0.50000  0.59982  1.0000
  H   H8        1.0  0.15672  0.50000  0.57097  1.0000
  H   H9        1.0  0.88470  0.50000  0.55036  1.0000
  O   O9        1.0  0.93745  0.50000  0.51904  1.0000
  O   O10       1.0  0.06275  0.50000  0.51904  1.0000
  H   H10       1.0  0.11550  0.50000  0.55036  1.0000
  H   H11       1.0  0.84348  0.50000  0.57097  1.0000
  O   O11       1.0  0.77589  0.50000  0.59982  1.0000
  O   O12       1.0  0.83853  0.50000  0.63114  1.0000
  H   H12       1.0  0.95888  0.50000  0.62867  1.0000
  C   C37       1.0  0.50000  0.93415  0.91667  1.0000
  C   C38       1.0  0.50000  0.96713  0.90018  1.0000
  C   C39       1.0  0.50000  0.03307  0.90018  1.0000
  C   C40       1.0  0.50000  0.06605  0.91667  1.0000
  C   C41       1.0  0.50000  0.03307  0.93315  1.0000
  C   C42       1.0  0.50000  0.96713  0.93315  1.0000
  C   C43       1.0  0.50000  0.13199  0.91667  1.0000
  C   C44       1.0  0.50000  0.16496  0.90018  1.0000
  C   C45       1.0  0.50000  0.13199  0.88369  1.0000
  C   C46       1.0  0.50000  0.06605  0.88369  1.0000
  C   C47       1.0  0.50000  0.86821  0.91667  1.0000
  C   C48       1.0  0.50000  0.83524  0.90018  1.0000
  C   C49       1.0  0.50000  0.86821  0.88369  1.0000
  C   C50       1.0  0.50000  0.93416  0.88369  1.0000
  C   C51       1.0  0.50000  0.93415  0.94964  1.0000
  C   C52       1.0  0.50000  0.96713  0.96613  1.0000
  C   C53       1.0  0.50000  0.03307  0.96613  1.0000
  C   C54       1.0  0.50000  0.06605  0.94964  1.0000
  H   H13       1.0  0.50000  0.15672  0.92903  1.0000
  O   O13       1.0  0.50000  0.22431  0.90018  1.0000
  O   O14       1.0  0.50000  0.16167  0.86886  1.0000
  H   H14       1.0  0.50000  0.04132  0.87133  1.0000
  H   H15       1.0  0.50000  0.84348  0.92903  1.0000
  O   O15       1.0  0.50000  0.77589  0.90018  1.0000
  O   O16       1.0  0.50000  0.83854  0.86886  1.0000
  H   H16       1.0  0.50000  0.95888  0.87133  1.0000
  H   H17       1.0  0.50000  0.88470  0.94964  1.0000
  O   O17       1.0  0.50000  0.93745  0.98096  1.0000
  O   O18       1.0  0.50000  0.06275  0.98096  1.0000
  H   H18       1.0  0.50000  0.11550  0.94964  1.0000
  C   C55       1.0  0.96713  0.50000  0.43315  1.0000
  C   C56       1.0  0.03307  0.50000  0.43315  1.0000
  C   C57       1.0  0.06605  0.50000  0.41667  1.0000
  C   C58       1.0  0.03307  0.50000  0.40018  1.0000
  C   C59       1.0  0.96713  0.50000  0.40018  1.0000
  C   C60       1.0  0.93415  0.50000  0.41667  1.0000
  C   C61       1.0  0.06605  0.50000  0.38369  1.0000
  C   C62       1.0  0.13199  0.50000  0.38369  1.0000
  C   C63       1.0  0.16496  0.50000  0.40018  1.0000
  C   C64       1.0  0.13199  0.50000  0.41667  1.0000
  C   C65       1.0  0.93415  0.50000  0.44964  1.0000
  C   C66       1.0  0.96713  0.50000  0.46613  1.0000
  C   C67       1.0  0.03307  0.50000  0.46613  1.0000
  C   C68       1.0  0.06605  0.50000  0.44964  1.0000
  C   C69       1.0  0.86821  0.50000  0.41667  1.0000
  C   C70       1.0  0.83524  0.50000  0.40018  1.0000
  C   C71       1.0  0.86821  0.50000  0.38369  1.0000
  C   C72       1.0  0.93415  0.50000  0.38369  1.0000
  H   H19       1.0  0.04132  0.50000  0.37133  1.0000
  O   O19       1.0  0.16167  0.50000  0.36886  1.0000
  O   O20       1.0  0.22431  0.50000  0.40018  1.0000
  H   H20       1.0  0.15672  0.50000  0.42903  1.0000
  H   H21       1.0  0.88470  0.50000  0.44964  1.0000
  O   O21       1.0  0.93745  0.50000  0.48096  1.0000
  O   O22       1.0  0.06275  0.50000  0.48096  1.0000
  H   H22       1.0  0.11550  0.50000  0.44964  1.0000
  H   H23       1.0  0.84348  0.50000  0.42903  1.0000
  O   O23       1.0  0.77589  0.50000  0.40018  1.0000
  O   O24       1.0  0.83853  0.50000  0.36886  1.0000
  H   H24       1.0  0.95888  0.50000  0.37133  1.0000
  C   C73       1.0  0.50000  0.43405  0.16667  1.0000
  C   C74       1.0  0.50000  0.46703  0.15018  1.0000
  C   C75       1.0  0.50000  0.53297  0.15018  1.0000
  C   C76       1.0  0.50000  0.56594  0.16667  1.0000
  C   C77       1.0  0.50000  0.53297  0.18315  1.0000
  C   C78       1.0  0.50000  0.46703  0.18315  1.0000
  C   C79       1.0  0.50000  0.63189  0.16667  1.0000
  C   C80       1.0  0.50000  0.66486  0.15018  1.0000
  C   C81       1.0  0.50000  0.63189  0.13369  1.0000
  C   C82       1.0  0.50000  0.56594  0.13369  1.0000
  C   C83       1.0  0.50000  0.36811  0.16667  1.0000
  C   C84       1.0  0.50000  0.33513  0.15018  1.0000
  C   C85       1.0  0.50000  0.36811  0.13369  1.0000
  C   C86       1.0  0.50000  0.43405  0.13369  1.0000
  C   C87       1.0  0.50000  0.43405  0.19964  1.0000
  C   C88       1.0  0.50000  0.46703  0.21612  1.0000
  C   C89       1.0  0.50000  0.53297  0.21612  1.0000
  C   C90       1.0  0.50000  0.56594  0.19964  1.0000
  H   H25       1.0  0.50000  0.65662  0.17903  1.0000
  O   O25       1.0  0.50000  0.72421  0.15018  1.0000
  O   O26       1.0  0.50000  0.66156  0.11885  1.0000
  H   H26       1.0  0.50000  0.54121  0.12133  1.0000
  H   H27       1.0  0.50000  0.34338  0.17903  1.0000
  O   O27       1.0  0.50000  0.27578  0.15018  1.0000
  O   O28       1.0  0.50000  0.33843  0.11885  1.0000
  H   H28       1.0  0.50000  0.45878  0.12133  1.0000
  H   H29       1.0  0.50000  0.38459  0.19964  1.0000
  O   O29       1.0  0.50000  0.43735  0.23096  1.0000
  O   O30       1.0  0.50000  0.56265  0.23096  1.0000
  H   H30       1.0  0.50000  0.61540  0.19964  1.0000
  C   C91       1.0  0.46703  0.50000  0.68315  1.0000
  C   C92       1.0  0.53297  0.50000  0.68315  1.0000
  C   C93       1.0  0.56595  0.50000  0.66667  1.0000
  C   C94       1.0  0.53297  0.50000  0.65018  1.0000
  C   C95       1.0  0.46703  0.50000  0.65018  1.0000
  C   C96       1.0  0.43406  0.50000  0.66667  1.0000
  C   C97       1.0  0.56595  0.50000  0.63369  1.0000
  C   C98       1.0  0.63189  0.50000  0.63369  1.0000
  C   C99       1.0  0.66486  0.50000  0.65018  1.0000
  C   C100      1.0  0.63189  0.50000  0.66667  1.0000
  C   C101      1.0  0.43406  0.50000  0.69964  1.0000
  C   C102      1.0  0.46703  0.50000  0.71613  1.0000
  C   C103      1.0  0.53297  0.50000  0.71613  1.0000
  C   C104      1.0  0.56595  0.50000  0.69964  1.0000
  C   C105      1.0  0.36811  0.50000  0.66667  1.0000
  C   C106      1.0  0.33514  0.50000  0.65018  1.0000
  C   C107      1.0  0.36811  0.50000  0.63369  1.0000
  C   C108      1.0  0.43406  0.50000  0.63369  1.0000
  H   H31       1.0  0.54122  0.50000  0.62133  1.0000
  O   O31       1.0  0.66157  0.50000  0.61886  1.0000
  O   O32       1.0  0.72421  0.50000  0.65018  1.0000
  H   H32       1.0  0.65662  0.50000  0.67903  1.0000
  H   H33       1.0  0.38460  0.50000  0.69964  1.0000
  O   O33       1.0  0.43735  0.50001  0.73096  1.0000
  O   O34       1.0  0.56265  0.50001  0.73096  1.0000
  H   H34       1.0  0.61540  0.50000  0.69964  1.0000
  H   H35       1.0  0.34338  0.50000  0.67903  1.0000
  O   O35       1.0  0.27579  0.50000  0.65018  1.0000
  O   O36       1.0  0.33843  0.50000  0.61886  1.0000
  H   H36       1.0  0.45878  0.50000  0.62133  1.0000
  C   C109      1.0  0.50000  0.53298  0.84982  1.0000
  C   C110      1.0  0.50000  0.56595  0.83333  1.0000
  C   C111      1.0  0.50000  0.53298  0.81685  1.0000
  C   C112      1.0  0.50000  0.46703  0.81685  1.0000
  C   C113      1.0  0.50000  0.43406  0.83333  1.0000
  C   C114      1.0  0.50000  0.46703  0.84982  1.0000
  C   C115      1.0  0.50000  0.43406  0.80036  1.0000
  C   C116      1.0  0.50000  0.46703  0.78388  1.0000
  C   C117      1.0  0.50000  0.53298  0.78388  1.0000
  C   C118      1.0  0.50000  0.56595  0.80036  1.0000
  C   C119      1.0  0.50000  0.56595  0.86631  1.0000
  C   C120      1.0  0.50000  0.63190  0.86631  1.0000
  C   C121      1.0  0.50000  0.66487  0.84982  1.0000
  C   C122      1.0  0.50000  0.63190  0.83333  1.0000
  C   C123      1.0  0.50000  0.43406  0.86631  1.0000
  C   C124      1.0  0.50000  0.36812  0.86631  1.0000
  C   C125      1.0  0.50000  0.33514  0.84982  1.0000
  C   C126      1.0  0.50000  0.36812  0.83333  1.0000
  H   H37       1.0  0.50000  0.38460  0.80036  1.0000
  O   O37       1.0  0.50000  0.43736  0.76904  1.0000
  O   O38       1.0  0.50000  0.56265  0.76904  1.0000
  H   H38       1.0  0.50000  0.61541  0.80036  1.0000
  H   H39       1.0  0.50000  0.54122  0.87867  1.0000
  O   O39       1.0  0.50000  0.66157  0.88115  1.0000
  O   O40       1.0  0.50000  0.72422  0.84982  1.0000
  H   H40       1.0  0.50000  0.65663  0.82097  1.0000
  H   H41       1.0  0.50000  0.45879  0.87867  1.0000
  O   O41       1.0  0.50000  0.33844  0.88115  1.0000
  O   O42       1.0  0.50000  0.27579  0.84982  1.0000
  H   H42       1.0  0.50000  0.34339  0.82097  1.0000
  C   C127      1.0  0.46703  0.50000  0.31685  1.0000
  C   C128      1.0  0.53297  0.50000  0.31685  1.0000
  C   C129      1.0  0.56595  0.50000  0.33333  1.0000
  C   C130      1.0  0.53297  0.50000  0.34982  1.0000
  C   C131      1.0  0.46703  0.50000  0.34982  1.0000
  C   C132      1.0  0.43405  0.50000  0.33333  1.0000
  C   C133      1.0  0.56595  0.50000  0.36631  1.0000
  C   C134      1.0  0.63189  0.50000  0.36631  1.0000
  C   C135      1.0  0.66486  0.50000  0.34982  1.0000
  C   C136      1.0  0.63189  0.50000  0.33333  1.0000
  C   C137      1.0  0.43405  0.50000  0.30036  1.0000
  C   C138      1.0  0.46703  0.50000  0.28387  1.0000
  C   C139      1.0  0.53297  0.50000  0.28387  1.0000
  C   C140      1.0  0.56595  0.50000  0.30036  1.0000
  C   C141      1.0  0.36811  0.50000  0.33333  1.0000
  C   C142      1.0  0.33514  0.50000  0.34982  1.0000
  C   C143      1.0  0.36811  0.50000  0.36631  1.0000
  C   C144      1.0  0.43405  0.50000  0.36631  1.0000
  H   H43       1.0  0.54122  0.50000  0.37867  1.0000
  O   O43       1.0  0.66157  0.50000  0.38114  1.0000
  O   O44       1.0  0.72421  0.50000  0.34982  1.0000
  H   H44       1.0  0.65662  0.50000  0.32097  1.0000
  H   H45       1.0  0.38460  0.50000  0.30036  1.0000
  O   O45       1.0  0.43735  0.50000  0.26904  1.0000
  O   O46       1.0  0.56265  0.50000  0.26904  1.0000
  H   H46       1.0  0.61540  0.50000  0.30036  1.0000
  H   H47       1.0  0.34338  0.50000  0.32097  1.0000
  O   O47       1.0  0.27579  0.50000  0.34982  1.0000
  O   O48       1.0  0.33843  0.50000  0.38114  1.0000
  H   H48       1.0  0.45878  0.50000  0.37867  1.0000
  Zn  Zn1       1.0  0.50000  0.50000  0.25000  1.0000
  Zn  Zn2       1.0  0.50000  0.50001  0.75000  1.0000
  Cu  Cu1       1.0  0.50000  0.25000  0.12500  1.0000
  Cu  Cu2       1.0  0.75010  0.50000  0.62500  1.0000
  Cu  Cu3       1.0  0.50000  0.75010  0.12500  1.0000
  Cu  Cu4       1.0  0.25000  0.50000  0.62500  1.0000
  Cu  Cu5       1.0  0.50000  0.75010  0.87500  1.0000
  Cu  Cu6       1.0  0.25000  0.50000  0.37500  1.0000
  Cu  Cu7       1.0  0.50000  0.25001  0.87500  1.0000
  Cu  Cu8       1.0  0.75010  0.50000  0.37500  1.0000
  Cu  Cu9       1.0  0.50000  0.00010  0.00010  1.0000
  Cu  Cu10      1.0  0.00010  0.50000  0.50000  1.0000
