data_image0
_chemical_formula_structural       C26H7O2H2O2HC4HO2HC26H7O2H2O2HC4HO2HC26H7O2H2O2HC4HO2HC26H7O2H2O2HC4HO2HC26H7O2H2O2HC4HO2HC26H7O2H2O2HC4HO2HC26H7O2H2O2HC4HO2HC26H7O2H2O2HC4HO2HZn2Cu10
_chemical_formula_sum              "C240 H96 O48 Zn2 Cu10"
_cell_length_a       32.4499
_cell_length_b       32.4499
_cell_length_c       112.408
_cell_angle_alpha    90
_cell_angle_beta     90
_cell_angle_gamma    90

_space_group_name_H-M_alt    "P 1"
_space_group_IT_number       1

loop_
  _space_group_symop_operation_xyz
  'x, y, z'

loop_
  _atom_site_type_symbol
  _atom_site_label
  _atom_site_symmetry_multiplicity
  _atom_site_fract_x
  _atom_site_fract_y
  _atom_site_fract_z
  _atom_site_occupancy
  C   C1        1.0  0.50000  0.97636  0.09520  1.0000
  C   C2        1.0  0.50000  0.95265  0.08333  1.0000
  C   C3        1.0  0.50000  0.97637  0.07147  1.0000
  C   C4        1.0  0.50000  0.02381  0.07147  1.0000
  C   C5        1.0  0.50000  0.04755  0.08333  1.0000
  C   C6        1.0  0.50000  0.02382  0.09520  1.0000
  C   C7        1.0  0.50000  0.04754  0.05960  1.0000
  C   C8        1.0  0.50000  0.02383  0.04774  1.0000
  C   C9        1.0  0.50000  0.97637  0.04774  1.0000
  C   C10       1.0  0.50000  0.95264  0.05960  1.0000
  C   C11       1.0  0.50000  0.95263  0.10706  1.0000
  C   C12       1.0  0.50000  0.90519  0.10706  1.0000
  C   C13       1.0  0.50000  0.88145  0.09520  1.0000
  C   C14       1.0  0.50000  0.90518  0.08333  1.0000
  C   C15       1.0  0.50000  0.04756  0.10706  1.0000
  C   C16       1.0  0.50000  0.09500  0.10706  1.0000
  C   C17       1.0  0.50000  0.11873  0.09520  1.0000
  C   C18       1.0  0.50000  0.09502  0.08333  1.0000
  C   C19       1.0  0.50000  0.16619  0.09520  1.0000
  C   C20       1.0  0.50000  0.18993  0.10706  1.0000
  C   C21       1.0  0.50000  0.16620  0.11893  1.0000
  C   C22       1.0  0.50000  0.11874  0.11893  1.0000
  C   C23       1.0  0.50000  0.95263  0.03587  1.0000
  C   C24       1.0  0.50000  0.97636  0.02401  1.0000
  C   C25       1.0  0.50000  0.02382  0.02401  1.0000
  C   C26       1.0  0.50000  0.04756  0.03588  1.0000
  H   H1        1.0  0.50000  0.08269  0.05961  1.0000
  H   H2        1.0  0.50000  0.91751  0.05960  1.0000
  H   H3        1.0  0.50000  0.97021  0.11585  1.0000
  H   H4        1.0  0.50000  0.88762  0.07455  1.0000
  H   H5        1.0  0.50000  0.02999  0.11585  1.0000
  H   H6        1.0  0.50000  0.11258  0.07455  1.0000
  H   H7        1.0  0.50000  0.18376  0.08641  1.0000
  O   O1        1.0  0.50000  0.23616  0.10706  1.0000
  O   O2        1.0  0.50000  0.18931  0.13048  1.0000
  H   H8        1.0  0.50000  0.10117  0.12771  1.0000
  H   H9        1.0  0.50000  0.91750  0.03587  1.0000
  O   O3        1.0  0.50000  0.95325  0.01245  1.0000
  O   O4        1.0  0.50000  0.04694  0.01245  1.0000
  H   H10       1.0  0.50000  0.08268  0.03587  1.0000
  C   C27       1.0  0.50000  0.83398  0.09520  1.0000
  C   C28       1.0  0.50000  0.81025  0.10706  1.0000
  C   C29       1.0  0.50000  0.83399  0.11893  1.0000
  C   C30       1.0  0.50000  0.88146  0.11893  1.0000
  H   H11       1.0  0.50000  0.81643  0.08641  1.0000
  O   O5        1.0  0.50000  0.76403  0.10706  1.0000
  O   O6        1.0  0.50000  0.81088  0.13048  1.0000
  H   H12       1.0  0.50000  0.89902  0.12771  1.0000
  C   C31       1.0  0.95264  0.50000  0.58334  1.0000
  C   C32       1.0  0.97636  0.50000  0.59520  1.0000
  C   C33       1.0  0.02382  0.50000  0.59520  1.0000
  C   C34       1.0  0.04755  0.50000  0.58334  1.0000
  C   C35       1.0  0.02382  0.50000  0.57147  1.0000
  C   C36       1.0  0.97636  0.50000  0.57147  1.0000
  C   C37       1.0  0.09501  0.50000  0.58334  1.0000
  C   C38       1.0  0.11874  0.50000  0.59520  1.0000
  C   C39       1.0  0.09501  0.50000  0.60706  1.0000
  C   C40       1.0  0.04755  0.50000  0.60706  1.0000
  C   C41       1.0  0.90518  0.50000  0.58334  1.0000
  C   C42       1.0  0.88145  0.50000  0.59520  1.0000
  C   C43       1.0  0.90518  0.50000  0.60706  1.0000
  C   C44       1.0  0.95264  0.50000  0.60706  1.0000
  C   C45       1.0  0.95264  0.50000  0.55960  1.0000
  C   C46       1.0  0.97636  0.50000  0.54774  1.0000
  C   C47       1.0  0.02382  0.50000  0.54774  1.0000
  C   C48       1.0  0.04755  0.50000  0.55960  1.0000
  C   C49       1.0  0.04755  0.50000  0.53588  1.0000
  C   C50       1.0  0.02382  0.50000  0.52401  1.0000
  C   C51       1.0  0.97636  0.50000  0.52401  1.0000
  C   C52       1.0  0.95264  0.50000  0.53588  1.0000
  C   C53       1.0  0.11874  0.50000  0.61893  1.0000
  C   C54       1.0  0.16620  0.50000  0.61893  1.0000
  C   C55       1.0  0.18992  0.50000  0.60706  1.0000
  C   C56       1.0  0.16620  0.50000  0.59520  1.0000
  H   H13       1.0  0.11257  0.50000  0.57455  1.0000
  H   H14       1.0  0.02999  0.50000  0.61584  1.0000
  H   H15       1.0  0.88761  0.50000  0.57455  1.0000
  H   H16       1.0  0.97020  0.50000  0.61584  1.0000
  H   H17       1.0  0.91750  0.50000  0.55960  1.0000
  H   H18       1.0  0.08268  0.50000  0.55960  1.0000
  H   H19       1.0  0.08268  0.50000  0.53588  1.0000
  O   O7        1.0  0.04693  0.50000  0.51245  1.0000
  O   O8        1.0  0.95325  0.50000  0.51245  1.0000
  H   H20       1.0  0.91750  0.50000  0.53588  1.0000
  H   H21       1.0  0.10117  0.50000  0.62771  1.0000
  O   O9        1.0  0.18931  0.50000  0.63049  1.0000
  O   O10       1.0  0.23615  0.50000  0.60706  1.0000
  H   H22       1.0  0.18376  0.50000  0.58642  1.0000
  C   C57       1.0  0.88145  0.50000  0.61893  1.0000
  C   C58       1.0  0.83399  0.50000  0.61893  1.0000
  C   C59       1.0  0.81026  0.50000  0.60706  1.0000
  C   C60       1.0  0.83399  0.50000  0.59520  1.0000
  H   H23       1.0  0.89901  0.50000  0.62771  1.0000
  O   O11       1.0  0.81088  0.50000  0.63049  1.0000
  O   O12       1.0  0.76404  0.50000  0.60706  1.0000
  H   H24       1.0  0.81642  0.50000  0.58642  1.0000
  C   C61       1.0  0.50000  0.97638  0.92854  1.0000
  C   C62       1.0  0.50000  0.02382  0.92853  1.0000
  C   C63       1.0  0.50000  0.04755  0.91667  1.0000
  C   C64       1.0  0.50000  0.02384  0.90481  1.0000
  C   C65       1.0  0.50000  0.97637  0.90481  1.0000
  C   C66       1.0  0.50000  0.95264  0.91667  1.0000
  C   C67       1.0  0.50000  0.04757  0.89294  1.0000
  C   C68       1.0  0.50000  0.09501  0.89294  1.0000
  C   C69       1.0  0.50000  0.11874  0.90481  1.0000
  C   C70       1.0  0.50000  0.09501  0.91667  1.0000
  C   C71       1.0  0.50000  0.95265  0.94040  1.0000
  C   C72       1.0  0.50000  0.97636  0.95226  1.0000
  C   C73       1.0  0.50000  0.02383  0.95226  1.0000
  C   C74       1.0  0.50000  0.04756  0.94040  1.0000
  C   C75       1.0  0.50000  0.90518  0.91667  1.0000
  C   C76       1.0  0.50000  0.88146  0.90481  1.0000
  C   C77       1.0  0.50000  0.90519  0.89294  1.0000
  C   C78       1.0  0.50000  0.95263  0.89294  1.0000
  C   C79       1.0  0.50000  0.88146  0.88108  1.0000
  C   C80       1.0  0.50000  0.83399  0.88108  1.0000
  C   C81       1.0  0.50000  0.81026  0.89294  1.0000
  C   C82       1.0  0.50000  0.83400  0.90481  1.0000
  C   C83       1.0  0.50000  0.16621  0.90481  1.0000
  C   C84       1.0  0.50000  0.18994  0.89294  1.0000
  C   C85       1.0  0.50000  0.16620  0.88108  1.0000
  C   C86       1.0  0.50000  0.11873  0.88108  1.0000
  H   H25       1.0  0.50000  0.02998  0.88416  1.0000
  H   H26       1.0  0.50000  0.11257  0.92545  1.0000
  H   H27       1.0  0.50000  0.91750  0.94040  1.0000
  H   H28       1.0  0.50000  0.08268  0.94040  1.0000
  H   H29       1.0  0.50000  0.88761  0.92545  1.0000
  H   H30       1.0  0.50000  0.97020  0.88416  1.0000
  H   H31       1.0  0.50000  0.89902  0.87229  1.0000
  O   O13       1.0  0.50000  0.81088  0.86952  1.0000
  O   O14       1.0  0.50000  0.76404  0.89294  1.0000
  H   H32       1.0  0.50000  0.81643  0.91359  1.0000
  H   H33       1.0  0.50000  0.18377  0.91359  1.0000
  O   O15       1.0  0.50000  0.23616  0.89294  1.0000
  O   O16       1.0  0.50000  0.18931  0.86952  1.0000
  H   H34       1.0  0.50000  0.10118  0.87229  1.0000
  C   C87       1.0  0.50000  0.04756  0.96413  1.0000
  C   C88       1.0  0.50000  0.02384  0.97600  1.0000
  C   C89       1.0  0.50000  0.97637  0.97599  1.0000
  C   C90       1.0  0.50000  0.95263  0.96413  1.0000
  H   H35       1.0  0.50000  0.08269  0.96413  1.0000
  O   O17       1.0  0.50000  0.04695  0.98755  1.0000
  O   O18       1.0  0.50000  0.95326  0.98755  1.0000
  H   H36       1.0  0.50000  0.91751  0.96413  1.0000
  C   C91       1.0  0.95264  0.50000  0.41666  1.0000
  C   C92       1.0  0.97636  0.50000  0.40480  1.0000
  C   C93       1.0  0.02382  0.50000  0.40480  1.0000
  C   C94       1.0  0.04755  0.50000  0.41666  1.0000
  C   C95       1.0  0.02382  0.50000  0.42853  1.0000
  C   C96       1.0  0.97636  0.50000  0.42853  1.0000
  C   C97       1.0  0.09501  0.50000  0.41666  1.0000
  C   C98       1.0  0.11874  0.50000  0.40480  1.0000
  C   C99       1.0  0.09501  0.50000  0.39294  1.0000
  C   C100      1.0  0.04755  0.50000  0.39294  1.0000
  C   C101      1.0  0.90518  0.50000  0.41666  1.0000
  C   C102      1.0  0.88145  0.50000  0.40480  1.0000
  C   C103      1.0  0.90518  0.50000  0.39294  1.0000
  C   C104      1.0  0.95264  0.50000  0.39294  1.0000
  C   C105      1.0  0.95264  0.50000  0.44040  1.0000
  C   C106      1.0  0.97636  0.50000  0.45226  1.0000
  C   C107      1.0  0.02382  0.50000  0.45226  1.0000
  C   C108      1.0  0.04755  0.50000  0.44040  1.0000
  C   C109      1.0  0.04755  0.50000  0.46412  1.0000
  C   C110      1.0  0.02382  0.50000  0.47599  1.0000
  C   C111      1.0  0.97636  0.50000  0.47599  1.0000
  C   C112      1.0  0.95264  0.50000  0.46412  1.0000
  C   C113      1.0  0.11874  0.50000  0.38107  1.0000
  C   C114      1.0  0.16620  0.50000  0.38107  1.0000
  C   C115      1.0  0.18992  0.50000  0.39294  1.0000
  C   C116      1.0  0.16620  0.50000  0.40480  1.0000
  H   H37       1.0  0.11257  0.50000  0.42545  1.0000
  H   H38       1.0  0.02999  0.50000  0.38416  1.0000
  H   H39       1.0  0.88761  0.50000  0.42545  1.0000
  H   H40       1.0  0.97020  0.50000  0.38416  1.0000
  H   H41       1.0  0.91750  0.50000  0.44040  1.0000
  H   H42       1.0  0.08268  0.50000  0.44040  1.0000
  H   H43       1.0  0.08268  0.50000  0.46412  1.0000
  O   O19       1.0  0.04693  0.50000  0.48755  1.0000
  O   O20       1.0  0.95325  0.50000  0.48755  1.0000
  H   H44       1.0  0.91750  0.50000  0.46412  1.0000
  H   H45       1.0  0.10117  0.50000  0.37229  1.0000
  O   O21       1.0  0.18931  0.50000  0.36951  1.0000
  O   O22       1.0  0.23615  0.50000  0.39294  1.0000
  H   H46       1.0  0.18376  0.50000  0.41358  1.0000
  C   C117      1.0  0.88145  0.50000  0.38107  1.0000
  C   C118      1.0  0.83399  0.50000  0.38107  1.0000
  C   C119      1.0  0.81026  0.50000  0.39294  1.0000
  C   C120      1.0  0.83399  0.50000  0.40480  1.0000
  H   H47       1.0  0.89901  0.50000  0.37229  1.0000
  O   O23       1.0  0.81088  0.50000  0.36951  1.0000
  O   O24       1.0  0.76404  0.50000  0.39294  1.0000
  H   H48       1.0  0.81642  0.50000  0.41358  1.0000
  C   C121      1.0  0.50000  0.47628  0.17853  1.0000
  C   C122      1.0  0.50000  0.52372  0.17853  1.0000
  C   C123      1.0  0.50000  0.54745  0.16667  1.0000
  C   C124      1.0  0.50000  0.52374  0.15480  1.0000
  C   C125      1.0  0.50000  0.47627  0.15480  1.0000
  C   C126      1.0  0.50000  0.45254  0.16667  1.0000
  C   C127      1.0  0.50000  0.54747  0.14294  1.0000
  C   C128      1.0  0.50000  0.59491  0.14294  1.0000
  C   C129      1.0  0.50000  0.61864  0.15480  1.0000
  C   C130      1.0  0.50000  0.59491  0.16667  1.0000
  C   C131      1.0  0.50000  0.45255  0.19040  1.0000
  C   C132      1.0  0.50000  0.47626  0.20226  1.0000
  C   C133      1.0  0.50000  0.52373  0.20226  1.0000
  C   C134      1.0  0.50000  0.54746  0.19040  1.0000
  C   C135      1.0  0.50000  0.40508  0.16667  1.0000
  C   C136      1.0  0.50000  0.38136  0.15480  1.0000
  C   C137      1.0  0.50000  0.40509  0.14294  1.0000
  C   C138      1.0  0.50000  0.45253  0.14294  1.0000
  C   C139      1.0  0.50000  0.38136  0.13107  1.0000
  C   C140      1.0  0.50000  0.33389  0.13107  1.0000
  C   C141      1.0  0.50000  0.31016  0.14294  1.0000
  C   C142      1.0  0.50000  0.33390  0.15480  1.0000
  C   C143      1.0  0.50000  0.66611  0.15480  1.0000
  C   C144      1.0  0.50000  0.68984  0.14294  1.0000
  C   C145      1.0  0.50000  0.66610  0.13107  1.0000
  C   C146      1.0  0.50000  0.61863  0.13107  1.0000
  H   H49       1.0  0.50000  0.52988  0.13415  1.0000
  H   H50       1.0  0.50000  0.61247  0.17545  1.0000
  H   H51       1.0  0.50000  0.41740  0.19040  1.0000
  H   H52       1.0  0.50000  0.58258  0.19040  1.0000
  H   H53       1.0  0.50000  0.38751  0.17545  1.0000
  H   H54       1.0  0.50000  0.47010  0.13415  1.0000
  H   H55       1.0  0.50000  0.39892  0.12229  1.0000
  O   O25       1.0  0.50000  0.31078  0.11952  1.0000
  O   O26       1.0  0.50000  0.26394  0.14294  1.0000
  H   H56       1.0  0.50000  0.31633  0.16359  1.0000
  H   H57       1.0  0.50000  0.68367  0.16359  1.0000
  O   O27       1.0  0.50000  0.73606  0.14294  1.0000
  O   O28       1.0  0.50000  0.68921  0.11952  1.0000
  H   H58       1.0  0.50000  0.60108  0.12229  1.0000
  C   C147      1.0  0.50000  0.54746  0.21413  1.0000
  C   C148      1.0  0.50000  0.52374  0.22599  1.0000
  C   C149      1.0  0.50000  0.47627  0.22599  1.0000
  C   C150      1.0  0.50000  0.45253  0.21412  1.0000
  H   H59       1.0  0.50000  0.58259  0.21413  1.0000
  O   O29       1.0  0.50000  0.54685  0.23755  1.0000
  O   O30       1.0  0.50000  0.45316  0.23755  1.0000
  H   H60       1.0  0.50000  0.41741  0.21413  1.0000
  C   C151      1.0  0.45254  0.50000  0.66666  1.0000
  C   C152      1.0  0.47626  0.50000  0.65480  1.0000
  C   C153      1.0  0.52372  0.50000  0.65480  1.0000
  C   C154      1.0  0.54745  0.50000  0.66666  1.0000
  C   C155      1.0  0.52372  0.50000  0.67853  1.0000
  C   C156      1.0  0.47626  0.50000  0.67853  1.0000
  C   C157      1.0  0.59491  0.50000  0.66666  1.0000
  C   C158      1.0  0.61864  0.50000  0.65480  1.0000
  C   C159      1.0  0.59491  0.50000  0.64294  1.0000
  C   C160      1.0  0.54745  0.50000  0.64294  1.0000
  C   C161      1.0  0.40508  0.50000  0.66666  1.0000
  C   C162      1.0  0.38135  0.50000  0.65480  1.0000
  C   C163      1.0  0.40508  0.50000  0.64294  1.0000
  C   C164      1.0  0.45254  0.50000  0.64294  1.0000
  C   C165      1.0  0.45254  0.50000  0.69040  1.0000
  C   C166      1.0  0.47626  0.50000  0.70226  1.0000
  C   C167      1.0  0.52372  0.50000  0.70226  1.0000
  C   C168      1.0  0.54745  0.50000  0.69040  1.0000
  C   C169      1.0  0.54745  0.50000  0.71412  1.0000
  C   C170      1.0  0.52372  0.50000  0.72599  1.0000
  C   C171      1.0  0.47626  0.50000  0.72599  1.0000
  C   C172      1.0  0.45254  0.50000  0.71412  1.0000
  C   C173      1.0  0.61864  0.50000  0.63107  1.0000
  C   C174      1.0  0.66610  0.50000  0.63107  1.0000
  C   C175      1.0  0.68982  0.50000  0.64294  1.0000
  C   C176      1.0  0.66610  0.50000  0.65480  1.0000
  H   H61       1.0  0.61247  0.50000  0.67545  1.0000
  H   H62       1.0  0.52989  0.50000  0.63416  1.0000
  H   H63       1.0  0.38751  0.50000  0.67545  1.0000
  H   H64       1.0  0.47010  0.50000  0.63416  1.0000
  H   H65       1.0  0.41740  0.50000  0.69040  1.0000
  H   H66       1.0  0.58258  0.50000  0.69040  1.0000
  H   H67       1.0  0.58258  0.50000  0.71412  1.0000
  O   O31       1.0  0.54683  0.50000  0.73755  1.0000
  O   O32       1.0  0.45315  0.50000  0.73755  1.0000
  H   H68       1.0  0.41740  0.50000  0.71412  1.0000
  H   H69       1.0  0.60107  0.50000  0.62229  1.0000
  O   O33       1.0  0.68921  0.50000  0.61951  1.0000
  O   O34       1.0  0.73605  0.50000  0.64294  1.0000
  H   H70       1.0  0.68366  0.50000  0.66358  1.0000
  C   C177      1.0  0.38135  0.50000  0.63107  1.0000
  C   C178      1.0  0.33389  0.50000  0.63107  1.0000
  C   C179      1.0  0.31016  0.50000  0.64294  1.0000
  C   C180      1.0  0.33389  0.50000  0.65480  1.0000
  H   H71       1.0  0.39891  0.50000  0.62229  1.0000
  O   O35       1.0  0.31078  0.50000  0.61951  1.0000
  O   O36       1.0  0.26394  0.50000  0.64294  1.0000
  H   H72       1.0  0.31633  0.50000  0.66358  1.0000
  C   C181      1.0  0.50000  0.47626  0.84520  1.0000
  C   C182      1.0  0.50000  0.45255  0.83334  1.0000
  C   C183      1.0  0.50000  0.47627  0.82147  1.0000
  C   C184      1.0  0.50000  0.52371  0.82147  1.0000
  C   C185      1.0  0.50000  0.54745  0.83334  1.0000
  C   C186      1.0  0.50000  0.52372  0.84520  1.0000
  C   C187      1.0  0.50000  0.54744  0.80961  1.0000
  C   C188      1.0  0.50000  0.52373  0.79774  1.0000
  C   C189      1.0  0.50000  0.47627  0.79774  1.0000
  C   C190      1.0  0.50000  0.45254  0.80961  1.0000
  C   C191      1.0  0.50000  0.45253  0.85706  1.0000
  C   C192      1.0  0.50000  0.40509  0.85707  1.0000
  C   C193      1.0  0.50000  0.38135  0.84520  1.0000
  C   C194      1.0  0.50000  0.40508  0.83334  1.0000
  C   C195      1.0  0.50000  0.54746  0.85707  1.0000
  C   C196      1.0  0.50000  0.59490  0.85706  1.0000
  C   C197      1.0  0.50000  0.61863  0.84520  1.0000
  C   C198      1.0  0.50000  0.59492  0.83334  1.0000
  C   C199      1.0  0.50000  0.66609  0.84520  1.0000
  C   C200      1.0  0.50000  0.68983  0.85707  1.0000
  C   C201      1.0  0.50000  0.66610  0.86893  1.0000
  C   C202      1.0  0.50000  0.61864  0.86893  1.0000
  C   C203      1.0  0.50000  0.45253  0.78588  1.0000
  C   C204      1.0  0.50000  0.47626  0.77401  1.0000
  C   C205      1.0  0.50000  0.52372  0.77401  1.0000
  C   C206      1.0  0.50000  0.54746  0.78588  1.0000
  H   H73       1.0  0.50000  0.58259  0.80961  1.0000
  H   H74       1.0  0.50000  0.41741  0.80961  1.0000
  H   H75       1.0  0.50000  0.47011  0.86585  1.0000
  H   H76       1.0  0.50000  0.38752  0.82455  1.0000
  H   H77       1.0  0.50000  0.52989  0.86585  1.0000
  H   H78       1.0  0.50000  0.61248  0.82455  1.0000
  H   H79       1.0  0.50000  0.68366  0.83642  1.0000
  O   O37       1.0  0.50000  0.73606  0.85707  1.0000
  O   O38       1.0  0.50000  0.68921  0.88049  1.0000
  H   H80       1.0  0.50000  0.60107  0.87771  1.0000
  H   H81       1.0  0.50000  0.41740  0.78588  1.0000
  O   O39       1.0  0.50000  0.45315  0.76246  1.0000
  O   O40       1.0  0.50000  0.54684  0.76246  1.0000
  H   H82       1.0  0.50000  0.58258  0.78588  1.0000
  C   C207      1.0  0.50000  0.33388  0.84520  1.0000
  C   C208      1.0  0.50000  0.31015  0.85706  1.0000
  C   C209      1.0  0.50000  0.33389  0.86893  1.0000
  C   C210      1.0  0.50000  0.38136  0.86893  1.0000
  H   H83       1.0  0.50000  0.31633  0.83642  1.0000
  O   O41       1.0  0.50000  0.26393  0.85706  1.0000
  O   O42       1.0  0.50000  0.31078  0.88049  1.0000
  H   H84       1.0  0.50000  0.39892  0.87771  1.0000
  C   C211      1.0  0.45253  0.50000  0.33334  1.0000
  C   C212      1.0  0.47626  0.50000  0.34520  1.0000
  C   C213      1.0  0.52372  0.50000  0.34520  1.0000
  C   C214      1.0  0.54745  0.50000  0.33334  1.0000
  C   C215      1.0  0.52372  0.50000  0.32147  1.0000
  C   C216      1.0  0.47626  0.50000  0.32147  1.0000
  C   C217      1.0  0.59491  0.50000  0.33334  1.0000
  C   C218      1.0  0.61864  0.50000  0.34520  1.0000
  C   C219      1.0  0.59491  0.50000  0.35706  1.0000
  C   C220      1.0  0.54745  0.50000  0.35706  1.0000
  C   C221      1.0  0.40508  0.50000  0.33334  1.0000
  C   C222      1.0  0.38135  0.50000  0.34520  1.0000
  C   C223      1.0  0.40508  0.50000  0.35706  1.0000
  C   C224      1.0  0.45253  0.50000  0.35706  1.0000
  C   C225      1.0  0.45253  0.50000  0.30960  1.0000
  C   C226      1.0  0.47626  0.50000  0.29774  1.0000
  C   C227      1.0  0.52372  0.50000  0.29774  1.0000
  C   C228      1.0  0.54745  0.50000  0.30960  1.0000
  C   C229      1.0  0.54745  0.50000  0.28588  1.0000
  C   C230      1.0  0.52372  0.50000  0.27401  1.0000
  C   C231      1.0  0.47626  0.50000  0.27401  1.0000
  C   C232      1.0  0.45253  0.50000  0.28588  1.0000
  C   C233      1.0  0.61864  0.50000  0.36893  1.0000
  C   C234      1.0  0.66610  0.50000  0.36893  1.0000
  C   C235      1.0  0.68982  0.50000  0.35706  1.0000
  C   C236      1.0  0.66610  0.50000  0.34520  1.0000
  H   H85       1.0  0.61247  0.50000  0.32455  1.0000
  H   H86       1.0  0.52989  0.50000  0.36584  1.0000
  H   H87       1.0  0.38751  0.50000  0.32455  1.0000
  H   H88       1.0  0.47010  0.50000  0.36584  1.0000
  H   H89       1.0  0.41740  0.50000  0.30960  1.0000
  H   H90       1.0  0.58258  0.50000  0.30960  1.0000
  H   H91       1.0  0.58258  0.50000  0.28588  1.0000
  O   O43       1.0  0.54683  0.50000  0.26245  1.0000
  O   O44       1.0  0.45315  0.50000  0.26245  1.0000
  H   H92       1.0  0.41740  0.50000  0.28588  1.0000
  H   H93       1.0  0.60107  0.50000  0.37771  1.0000
  O   O45       1.0  0.68921  0.50000  0.38049  1.0000
  O   O46       1.0  0.73605  0.50000  0.35706  1.0000
  H   H94       1.0  0.68366  0.50000  0.33642  1.0000
  C   C237      1.0  0.38135  0.50000  0.36893  1.0000
  C   C238      1.0  0.33389  0.50000  0.36893  1.0000
  C   C239      1.0  0.31016  0.50000  0.35706  1.0000
  C   C240      1.0  0.33389  0.50000  0.34520  1.0000
  H   H95       1.0  0.39891  0.50000  0.37771  1.0000
  O   O47       1.0  0.31078  0.50000  0.38049  1.0000
  O   O48       1.0  0.26394  0.50000  0.35706  1.0000
  H   H96       1.0  0.31632  0.50000  0.33642  1.0000
  Zn  Zn1       1.0  0.50000  0.50000  0.25000  1.0000
  Zn  Zn2       1.0  0.50000  0.50000  0.75000  1.0000
  Cu  Cu1       1.0  0.50000  0.25000  0.12500  1.0000
  Cu  Cu2       1.0  0.75010  0.50000  0.62500  1.0000
  Cu  Cu3       1.0  0.50000  0.75010  0.12500  1.0000
  Cu  Cu4       1.0  0.25000  0.50000  0.62500  1.0000
  Cu  Cu5       1.0  0.50000  0.75010  0.87500  1.0000
  Cu  Cu6       1.0  0.25000  0.50000  0.37500  1.0000
  Cu  Cu7       1.0  0.50000  0.25000  0.87500  1.0000
  Cu  Cu8       1.0  0.75010  0.50000  0.37500  1.0000
  Cu  Cu9       1.0  0.50000  0.00010  0.99990  1.0000
  Cu  Cu10      1.0  0.00010  0.50000  0.50000  1.0000
