data_image0
_chemical_formula_structural       Fe6C6HO2HO2C6HO2HO2C6HO2HO2C6HO2HO2C6HO2HO2C6HO2HO2C6HO2HO2C6HO2HO2C6HO2HO2
_chemical_formula_sum              "Fe6 C54 H18 O36"
_cell_length_a       21.5465
_cell_length_b       21.5465
_cell_length_c       18.2829
_cell_angle_alpha    90
_cell_angle_beta     90
_cell_angle_gamma    119.999

_space_group_name_H-M_alt    "P 1"
_space_group_IT_number       1

loop_
  _space_group_symop_operation_xyz
  'x, y, z'

loop_
  _atom_site_type_symbol
  _atom_site_label
  _atom_site_symmetry_multiplicity
  _atom_site_fract_x
  _atom_site_fract_y
  _atom_site_fract_z
  _atom_site_occupancy
  Fe  Fe1       1.0  0.20000  0.60000  0.16667  1.0000
  Fe  Fe2       1.0  0.60000  0.20000  0.50000  1.0000
  Fe  Fe3       1.0  0.40000  0.60000  0.83334  1.0000
  Fe  Fe4       1.0  0.80000  0.40000  0.16667  1.0000
  Fe  Fe5       1.0  0.40000  0.80000  0.50000  1.0000
  Fe  Fe6       1.0  0.60000  0.40000  0.83334  1.0000
  C   C1        1.0  0.35305  0.60000  0.04421  1.0000
  C   C2        1.0  0.29404  0.60000  0.07625  1.0000
  C   C3        1.0  0.24099  0.60000  0.03204  1.0000
  C   C4        1.0  0.24695  0.60000  0.95579  1.0000
  C   C5        1.0  0.30596  0.60000  0.92375  1.0000
  C   C6        1.0  0.35901  0.60000  0.96796  1.0000
  H   H1        1.0  0.39284  0.60000  0.07737  1.0000
  O   O1        1.0  0.28867  0.60000  0.14488  1.0000
  O   O2        1.0  0.18787  0.60000  0.06088  1.0000
  H   H2        1.0  0.20716  0.60000  0.92264  1.0000
  O   O3        1.0  0.31133  0.60000  0.85513  1.0000
  O   O4        1.0  0.41213  0.60000  0.93912  1.0000
  C   C7        1.0  0.64695  0.24695  0.28913  1.0000
  C   C8        1.0  0.70596  0.30596  0.25709  1.0000
  C   C9        1.0  0.75902  0.35901  0.30130  1.0000
  C   C10       1.0  0.75305  0.35305  0.37755  1.0000
  C   C11       1.0  0.69404  0.29404  0.40959  1.0000
  C   C12       1.0  0.64099  0.24099  0.36538  1.0000
  H   H3        1.0  0.60716  0.20716  0.25597  1.0000
  O   O5        1.0  0.71133  0.31133  0.18846  1.0000
  O   O6        1.0  0.81213  0.41212  0.27246  1.0000
  H   H4        1.0  0.79284  0.39284  0.41070  1.0000
  O   O7        1.0  0.68868  0.28867  0.47821  1.0000
  O   O8        1.0  0.58788  0.18787  0.39422  1.0000
  C   C13       1.0  0.40000  0.75305  0.71088  1.0000
  C   C14       1.0  0.40000  0.75901  0.63463  1.0000
  C   C15       1.0  0.40000  0.70596  0.59042  1.0000
  C   C16       1.0  0.40000  0.64695  0.62246  1.0000
  C   C17       1.0  0.40000  0.64099  0.69871  1.0000
  C   C18       1.0  0.40000  0.69404  0.74292  1.0000
  H   H5        1.0  0.40000  0.79284  0.74404  1.0000
  O   O9        1.0  0.40000  0.81213  0.60579  1.0000
  O   O10       1.0  0.40000  0.71133  0.52179  1.0000
  H   H6        1.0  0.40000  0.60716  0.58930  1.0000
  O   O11       1.0  0.40000  0.58787  0.72755  1.0000
  O   O12       1.0  0.40000  0.68867  0.81155  1.0000
  C   C19       1.0  0.75305  0.40000  0.95579  1.0000
  C   C20       1.0  0.69404  0.40000  0.92375  1.0000
  C   C21       1.0  0.64099  0.40000  0.96796  1.0000
  C   C22       1.0  0.64695  0.40000  0.04421  1.0000
  C   C23       1.0  0.70596  0.40000  0.07626  1.0000
  C   C24       1.0  0.75901  0.40000  0.03205  1.0000
  H   H7        1.0  0.79284  0.40000  0.92264  1.0000
  O   O13       1.0  0.68867  0.40000  0.85513  1.0000
  O   O14       1.0  0.58787  0.40000  0.93912  1.0000
  H   H8        1.0  0.60716  0.40000  0.07737  1.0000
  O   O15       1.0  0.71133  0.40000  0.14488  1.0000
  O   O16       1.0  0.81213  0.40000  0.06088  1.0000
  C   C25       1.0  0.35305  0.75305  0.28913  1.0000
  C   C26       1.0  0.29404  0.69404  0.25709  1.0000
  C   C27       1.0  0.24099  0.64099  0.30130  1.0000
  C   C28       1.0  0.24695  0.64695  0.37755  1.0000
  C   C29       1.0  0.30596  0.70596  0.40959  1.0000
  C   C30       1.0  0.35901  0.75901  0.36538  1.0000
  H   H9        1.0  0.39284  0.79284  0.25597  1.0000
  O   O17       1.0  0.28867  0.68868  0.18846  1.0000
  O   O18       1.0  0.18787  0.58788  0.27246  1.0000
  H   H10       1.0  0.20716  0.60716  0.41070  1.0000
  O   O19       1.0  0.31132  0.71133  0.47821  1.0000
  O   O20       1.0  0.41212  0.81213  0.39422  1.0000
  C   C31       1.0  0.60000  0.24695  0.71088  1.0000
  C   C32       1.0  0.60000  0.24099  0.63463  1.0000
  C   C33       1.0  0.60000  0.29404  0.59042  1.0000
  C   C34       1.0  0.60000  0.35305  0.62246  1.0000
  C   C35       1.0  0.60000  0.35901  0.69871  1.0000
  C   C36       1.0  0.60000  0.30596  0.74292  1.0000
  H   H11       1.0  0.60000  0.20716  0.74404  1.0000
  O   O21       1.0  0.60000  0.18787  0.60579  1.0000
  O   O22       1.0  0.60000  0.28867  0.52179  1.0000
  H   H12       1.0  0.60000  0.39284  0.58930  1.0000
  O   O23       1.0  0.60000  0.41213  0.72755  1.0000
  O   O24       1.0  0.60000  0.31133  0.81155  1.0000
  C   C37       1.0  0.00010  0.43503  0.16667  1.0000
  C   C38       1.0  0.93503  0.43502  0.16667  1.0000
  C   C39       1.0  0.93502  0.50000  0.16667  1.0000
  C   C40       1.0  0.99990  0.56497  0.16667  1.0000
  C   C41       1.0  0.06497  0.56498  0.16667  1.0000
  C   C42       1.0  0.06498  0.50000  0.16667  1.0000
  H   H13       1.0  0.00010  0.38629  0.16667  1.0000
  O   O25       1.0  0.87655  0.37655  0.16667  1.0000
  O   O26       1.0  0.87654  0.50000  0.16667  1.0000
  H   H14       1.0  0.99990  0.61371  0.16667  1.0000
  O   O27       1.0  0.12345  0.62345  0.16667  1.0000
  O   O28       1.0  0.12346  0.50000  0.16667  1.0000
  C   C43       1.0  0.43503  0.00010  0.50000  1.0000
  C   C44       1.0  0.43502  0.93503  0.50000  1.0000
  C   C45       1.0  0.50000  0.93502  0.50000  1.0000
  C   C46       1.0  0.56497  0.99990  0.50000  1.0000
  C   C47       1.0  0.56498  0.06497  0.50000  1.0000
  C   C48       1.0  0.50000  0.06498  0.50000  1.0000
  H   H15       1.0  0.38629  0.00010  0.50000  1.0000
  O   O29       1.0  0.37655  0.87655  0.50000  1.0000
  O   O30       1.0  0.50000  0.87654  0.50000  1.0000
  H   H16       1.0  0.61371  0.99990  0.50000  1.0000
  O   O31       1.0  0.62345  0.12345  0.50000  1.0000
  O   O32       1.0  0.50000  0.12346  0.50000  1.0000
  C   C49       1.0  0.56497  0.56497  0.83334  1.0000
  C   C50       1.0  0.56498  0.50000  0.83334  1.0000
  C   C51       1.0  0.50000  0.43502  0.83334  1.0000
  C   C52       1.0  0.43502  0.43502  0.83334  1.0000
  C   C53       1.0  0.43502  0.50000  0.83334  1.0000
  C   C54       1.0  0.50000  0.56498  0.83334  1.0000
  H   H17       1.0  0.61371  0.61371  0.83334  1.0000
  O   O33       1.0  0.62345  0.50000  0.83334  1.0000
  O   O34       1.0  0.50000  0.37655  0.83334  1.0000
  H   H18       1.0  0.38629  0.38629  0.83334  1.0000
  O   O35       1.0  0.37655  0.50000  0.83334  1.0000
  O   O36       1.0  0.50000  0.62345  0.83334  1.0000
