data_image0
_chemical_formula_structural       Fe18C6HO2HO2C6HO2HO2C6HO2HO2C6HO2HO2C6HO2HO2C6HO2HO2C6HO2HO2C6HO2HO2C6HO2HO2C6HO2HO2C6HO2HO2C6HO2HO2C6HO2HO2C6HO2HO2C6HO2HO2C6HO2HO2C6HO2HO2C6HO2HO2C6HO2HO2C6HO2HO2C6HO2HO2C6HO2HO2C6HO2HO2C6HO2HO2C6HO2HO2C6HO2HO2C6HO2HO2
_chemical_formula_sum              "Fe18 C162 H54 O108"
_cell_length_a       37.1338
_cell_length_b       37.1267
_cell_length_c       18.2815
_cell_angle_alpha    90.3551
_cell_angle_beta     89.6397
_cell_angle_gamma    118.989

_space_group_name_H-M_alt    "P 1"
_space_group_IT_number       1

loop_
  _space_group_symop_operation_xyz
  'x, y, z'

loop_
  _atom_site_type_symbol
  _atom_site_label
  _atom_site_symmetry_multiplicity
  _atom_site_fract_x
  _atom_site_fract_y
  _atom_site_fract_z
  _atom_site_occupancy
  Fe  Fe1       1.0  0.44862  0.04180  0.00803  1.0000
  Fe  Fe2       1.0  0.04796  0.44249  0.00974  1.0000
  Fe  Fe3       1.0  0.64932  0.64316  0.00894  1.0000
  Fe  Fe4       1.0  0.65186  0.04650  0.00970  1.0000
  Fe  Fe5       1.0  0.05259  0.64574  0.00797  1.0000
  Fe  Fe6       1.0  0.45128  0.44519  0.00883  1.0000
  Fe  Fe7       1.0  0.11534  0.37512  0.34136  1.0000
  Fe  Fe8       1.0  0.71460  0.77588  0.34311  1.0000
  Fe  Fe9       1.0  0.31592  0.97645  0.34224  1.0000
  Fe  Fe10      1.0  0.31859  0.37982  0.34303  1.0000
  Fe  Fe11      1.0  0.71924  0.97913  0.34134  1.0000
  Fe  Fe12      1.0  0.11788  0.77847  0.34214  1.0000
  Fe  Fe13      1.0  0.78202  0.70856  0.67475  1.0000
  Fe  Fe14      1.0  0.38123  0.10916  0.67643  1.0000
  Fe  Fe15      1.0  0.98265  0.30978  0.67557  1.0000
  Fe  Fe16      1.0  0.98519  0.71308  0.67634  1.0000
  Fe  Fe17      1.0  0.38600  0.31248  0.67465  1.0000
  Fe  Fe18      1.0  0.78455  0.11187  0.67549  1.0000
  C   C1        1.0  0.56133  0.06902  0.07156  1.0000
  C   C2        1.0  0.52267  0.05560  0.03980  1.0000
  C   C3        1.0  0.51158  0.03073  0.97711  1.0000
  C   C4        1.0  0.53915  0.01928  0.94618  1.0000
  C   C5        1.0  0.57781  0.03270  0.97794  1.0000
  C   C6        1.0  0.58890  0.05757  0.04063  1.0000
  H   H1        1.0  0.56965  0.08767  0.11858  1.0000
  O   O1        1.0  0.49785  0.06590  0.06764  1.0000
  O   O2        1.0  0.47678  0.01864  0.94852  1.0000
  H   H2        1.0  0.53083  0.00010  0.89916  1.0000
  O   O3        1.0  0.60262  0.02240  0.95010  1.0000
  O   O4        1.0  0.62369  0.06966  0.06921  1.0000
  C   C7        1.0  0.02541  0.53302  0.07156  1.0000
  C   C8        1.0  0.03687  0.50545  0.04064  1.0000
  C   C9        1.0  0.06174  0.51655  0.97795  1.0000
  C   C10       1.0  0.07515  0.55521  0.94616  1.0000
  C   C11       1.0  0.06369  0.58278  0.97708  1.0000
  C   C12       1.0  0.03882  0.57169  0.03977  1.0000
  H   H3        1.0  0.00676  0.52470  0.11858  1.0000
  O   O5        1.0  0.02480  0.47066  0.06925  1.0000
  O   O6        1.0  0.07205  0.49174  0.95012  1.0000
  H   H4        1.0  0.09380  0.56353  0.89914  1.0000
  O   O7        1.0  0.07576  0.61758  0.94847  1.0000
  O   O8        1.0  0.02851  0.59650  0.06760  1.0000
  C   C13       1.0  0.56291  0.53151  0.07110  1.0000
  C   C14       1.0  0.52443  0.50569  0.03997  1.0000
  C   C15       1.0  0.51183  0.51835  0.97776  1.0000
  C   C16       1.0  0.53770  0.55683  0.94667  1.0000
  C   C17       1.0  0.57617  0.58266  0.97780  1.0000
  C   C18       1.0  0.58878  0.57000  0.04001  1.0000
  H   H5        1.0  0.57236  0.52202  0.11776  1.0000
  O   O9        1.0  0.50115  0.47105  0.06795  1.0000
  O   O10       1.0  0.47720  0.49510  0.94974  1.0000
  H   H6        1.0  0.52825  0.56632  0.90001  1.0000
  O   O11       1.0  0.59946  0.61729  0.94983  1.0000
  O   O12       1.0  0.62341  0.59324  0.06803  1.0000
  C   C19       1.0  0.22806  0.40234  0.40489  1.0000
  C   C20       1.0  0.18939  0.38891  0.37313  1.0000
  C   C21       1.0  0.17830  0.36404  0.31044  1.0000
  C   C22       1.0  0.20587  0.35259  0.27951  1.0000
  C   C23       1.0  0.24454  0.36602  0.31127  1.0000
  C   C24       1.0  0.25563  0.39089  0.37396  1.0000
  H   H7        1.0  0.23637  0.42099  0.45190  1.0000
  O   O13       1.0  0.16458  0.39922  0.40096  1.0000
  O   O14       1.0  0.14351  0.35196  0.28185  1.0000
  H   H8        1.0  0.19755  0.33394  0.23249  1.0000
  O   O15       1.0  0.26935  0.35572  0.28343  1.0000
  O   O16       1.0  0.29042  0.40297  0.40254  1.0000
  C   C25       1.0  0.69205  0.86641  0.40492  1.0000
  C   C26       1.0  0.70350  0.83884  0.37400  1.0000
  C   C27       1.0  0.72837  0.84993  0.31130  1.0000
  C   C28       1.0  0.74179  0.88860  0.27952  1.0000
  C   C29       1.0  0.73033  0.91617  0.31044  1.0000
  C   C30       1.0  0.70547  0.90508  0.37314  1.0000
  H   H9        1.0  0.67340  0.85809  0.45194  1.0000
  O   O17       1.0  0.69143  0.80404  0.40261  1.0000
  O   O18       1.0  0.73868  0.82512  0.28348  1.0000
  H   H10       1.0  0.76044  0.89692  0.23250  1.0000
  O   O19       1.0  0.74241  0.95097  0.28184  1.0000
  O   O20       1.0  0.69516  0.92989  0.40096  1.0000
  C   C31       1.0  0.20430  0.89011  0.27998  1.0000
  C   C32       1.0  0.17843  0.85163  0.31107  1.0000
  C   C33       1.0  0.19104  0.83897  0.37328  1.0000
  C   C34       1.0  0.22951  0.86480  0.40440  1.0000
  C   C35       1.0  0.25538  0.90328  0.37332  1.0000
  C   C36       1.0  0.24277  0.91594  0.31111  1.0000
  H   H11       1.0  0.19484  0.89961  0.23332  1.0000
  O   O21       1.0  0.14380  0.82838  0.28305  1.0000
  O   O22       1.0  0.16775  0.80433  0.40125  1.0000
  H   H12       1.0  0.23896  0.85531  0.45106  1.0000
  O   O23       1.0  0.29000  0.92653  0.40134  1.0000
  O   O24       1.0  0.26605  0.95058  0.28313  1.0000
  C   C37       1.0  0.89473  0.73569  0.73823  1.0000
  C   C38       1.0  0.85607  0.72231  0.70649  1.0000
  C   C39       1.0  0.84495  0.69743  0.64379  1.0000
  C   C40       1.0  0.87248  0.68595  0.61285  1.0000
  C   C41       1.0  0.91114  0.69934  0.64459  1.0000
  C   C42       1.0  0.92226  0.72421  0.70729  1.0000
  H   H13       1.0  0.90307  0.75435  0.78525  1.0000
  O   O25       1.0  0.83128  0.73264  0.73434  1.0000
  O   O26       1.0  0.81015  0.68538  0.61522  1.0000
  H   H14       1.0  0.86414  0.66729  0.56583  1.0000
  O   O27       1.0  0.93593  0.68900  0.61674  1.0000
  O   O28       1.0  0.95706  0.73626  0.73586  1.0000
  C   C43       1.0  0.35875  0.19974  0.73824  1.0000
  C   C44       1.0  0.37017  0.17215  0.70732  1.0000
  C   C45       1.0  0.39504  0.18323  0.64463  1.0000
  C   C46       1.0  0.40848  0.22190  0.61284  1.0000
  C   C47       1.0  0.39705  0.24949  0.64376  1.0000
  C   C48       1.0  0.37218  0.23841  0.70645  1.0000
  H   H15       1.0  0.34010  0.19143  0.78526  1.0000
  O   O29       1.0  0.35808  0.13735  0.73593  1.0000
  O   O30       1.0  0.40532  0.15840  0.61680  1.0000
  H   H16       1.0  0.42713  0.23021  0.56582  1.0000
  O   O31       1.0  0.40914  0.28429  0.61515  1.0000
  O   O32       1.0  0.36190  0.26324  0.73428  1.0000
  C   C49       1.0  0.89619  0.19815  0.73774  1.0000
  C   C50       1.0  0.85771  0.17235  0.70662  1.0000
  C   C51       1.0  0.84512  0.18502  0.64441  1.0000
  C   C52       1.0  0.87101  0.22349  0.61332  1.0000
  C   C53       1.0  0.90949  0.24930  0.64444  1.0000
  C   C54       1.0  0.92208  0.23663  0.70665  1.0000
  H   H17       1.0  0.90564  0.18865  0.78440  1.0000
  O   O33       1.0  0.83442  0.13772  0.73460  1.0000
  O   O34       1.0  0.81049  0.16179  0.61640  1.0000
  H   H18       1.0  0.86156  0.23300  0.56666  1.0000
  O   O35       1.0  0.93279  0.28393  0.61646  1.0000
  O   O36       1.0  0.95671  0.25986  0.73466  1.0000
  C   C55       1.0  0.38186  0.04646  0.17533  1.0000
  C   C56       1.0  0.40351  0.03819  0.12081  1.0000
  C   C57       1.0  0.40382  0.00010  0.12049  1.0000
  C   C58       1.0  0.38248  0.97135  0.17468  1.0000
  C   C59       1.0  0.36083  0.97962  0.22920  1.0000
  C   C60       1.0  0.36052  0.01718  0.22953  1.0000
  H   H19       1.0  0.38163  0.07463  0.17558  1.0000
  O   O37       1.0  0.42272  0.06454  0.07204  1.0000
  O   O38       1.0  0.42331  0.99318  0.07142  1.0000
  H   H20       1.0  0.38271  0.94318  0.17444  1.0000
  O   O39       1.0  0.34162  0.95327  0.27798  1.0000
  O   O40       1.0  0.34103  0.02463  0.27860  1.0000
  C   C61       1.0  0.04453  0.37104  0.17476  1.0000
  C   C62       1.0  0.05193  0.40077  0.12144  1.0000
  C   C63       1.0  0.08874  0.43822  0.12223  1.0000
  C   C64       1.0  0.11815  0.44595  0.17635  1.0000
  C   C65       1.0  0.11075  0.41622  0.22967  1.0000
  C   C66       1.0  0.07394  0.37876  0.22887  1.0000
  H   H21       1.0  0.01692  0.34294  0.17416  1.0000
  O   O41       1.0  0.02546  0.39382  0.07274  1.0000
  O   O42       1.0  0.09540  0.46498  0.07425  1.0000
  H   H22       1.0  0.14576  0.47404  0.17695  1.0000
  O   O43       1.0  0.13721  0.42317  0.27837  1.0000
  O   O44       1.0  0.06727  0.35200  0.27686  1.0000
  C   C67       1.0  0.64451  0.71034  0.17568  1.0000
  C   C68       1.0  0.65264  0.68837  0.12158  1.0000
  C   C69       1.0  0.68988  0.68744  0.12206  1.0000
  C   C70       1.0  0.71899  0.70848  0.17665  1.0000
  C   C71       1.0  0.71085  0.73045  0.23075  1.0000
  C   C72       1.0  0.67361  0.73138  0.23027  1.0000
  H   H23       1.0  0.61657  0.71104  0.17532  1.0000
  O   O45       1.0  0.62644  0.66943  0.07245  1.0000
  O   O46       1.0  0.69720  0.66767  0.07336  1.0000
  H   H24       1.0  0.74692  0.70779  0.17701  1.0000
  O   O47       1.0  0.73705  0.74939  0.27988  1.0000
  O   O48       1.0  0.66629  0.75116  0.27897  1.0000
  C   C73       1.0  0.97786  0.37696  0.84232  1.0000
  C   C74       1.0  0.98599  0.35499  0.78821  1.0000
  C   C75       1.0  0.02322  0.35405  0.78868  1.0000
  C   C76       1.0  0.05234  0.37509  0.84327  1.0000
  C   C77       1.0  0.04421  0.39707  0.89738  1.0000
  C   C78       1.0  0.00697  0.39800  0.89691  1.0000
  H   H25       1.0  0.94993  0.37767  0.84197  1.0000
  O   O49       1.0  0.95978  0.33606  0.73909  1.0000
  O   O50       1.0  0.03054  0.33428  0.73998  1.0000
  H   H26       1.0  0.08026  0.37439  0.84362  1.0000
  O   O51       1.0  0.07041  0.41600  0.94651  1.0000
  O   O52       1.0  0.99990  0.41778  0.94561  1.0000
  C   C79       1.0  0.71652  0.63841  0.84215  1.0000
  C   C80       1.0  0.69455  0.64651  0.89628  1.0000
  C   C81       1.0  0.69360  0.68375  0.89585  1.0000
  C   C82       1.0  0.71463  0.71288  0.84128  1.0000
  C   C83       1.0  0.73660  0.70478  0.78714  1.0000
  C   C84       1.0  0.73755  0.66754  0.78758  1.0000
  H   H27       1.0  0.71723  0.61048  0.84247  1.0000
  O   O53       1.0  0.67562  0.62029  0.94540  1.0000
  O   O54       1.0  0.67382  0.69104  0.94458  1.0000
  H   H28       1.0  0.71392  0.74081  0.84096  1.0000
  O   O55       1.0  0.75553  0.73101  0.73803  1.0000
  O   O56       1.0  0.75733  0.66025  0.73885  1.0000
  C   C85       1.0  0.45141  0.11262  0.84302  1.0000
  C   C86       1.0  0.42200  0.10489  0.78891  1.0000
  C   C87       1.0  0.38519  0.06743  0.78812  1.0000
  C   C88       1.0  0.37779  0.03770  0.84145  1.0000
  C   C89       1.0  0.40721  0.04543  0.89556  1.0000
  C   C90       1.0  0.44401  0.08289  0.89634  1.0000
  H   H29       1.0  0.47902  0.14071  0.84361  1.0000
  O   O57       1.0  0.42865  0.13165  0.74092  1.0000
  O   O58       1.0  0.35872  0.06047  0.73943  1.0000
  H   H30       1.0  0.35019  0.00961  0.84086  1.0000
  O   O59       1.0  0.40055  0.01868  0.94355  1.0000
  O   O60       1.0  0.47049  0.08985  0.94504  1.0000
  C   C91       1.0  0.71800  0.11697  0.84307  1.0000
  C   C92       1.0  0.69665  0.08768  0.89726  1.0000
  C   C93       1.0  0.69696  0.05012  0.89691  1.0000
  C   C94       1.0  0.71861  0.04185  0.84238  1.0000
  C   C95       1.0  0.73995  0.07113  0.78820  1.0000
  C   C96       1.0  0.73965  0.10869  0.78854  1.0000
  H   H31       1.0  0.71777  0.14514  0.84333  1.0000
  O   O61       1.0  0.67717  0.09512  0.94634  1.0000
  O   O62       1.0  0.67775  0.02376  0.94568  1.0000
  H   H32       1.0  0.71884  0.01368  0.84212  1.0000
  O   O63       1.0  0.75944  0.06369  0.73912  1.0000
  O   O64       1.0  0.75886  0.13505  0.73978  1.0000
  C   C97       1.0  0.98176  0.64289  0.84297  1.0000
  C   C98       1.0  0.98947  0.67230  0.78884  1.0000
  C   C99       1.0  0.02691  0.70913  0.78802  1.0000
  C   C100      1.0  0.05664  0.71655  0.84133  1.0000
  C   C101      1.0  0.04893  0.68714  0.89546  1.0000
  C   C102      1.0  0.01149  0.65031  0.89628  1.0000
  H   H33       1.0  0.95368  0.61528  0.84358  1.0000
  O   O65       1.0  0.96272  0.66562  0.74086  1.0000
  O   O66       1.0  0.03385  0.73559  0.73930  1.0000
  H   H34       1.0  0.08472  0.74416  0.84072  1.0000
  O   O67       1.0  0.07569  0.69382  0.94344  1.0000
  O   O68       1.0  0.00455  0.62385  0.94500  1.0000
  C   C103      1.0  0.38131  0.37926  0.84189  1.0000
  C   C104      1.0  0.38960  0.35760  0.78739  1.0000
  C   C105      1.0  0.42714  0.35728  0.78710  1.0000
  C   C106      1.0  0.45641  0.37862  0.84131  1.0000
  C   C107      1.0  0.44812  0.40028  0.89581  1.0000
  C   C108      1.0  0.41057  0.40060  0.89609  1.0000
  H   H35       1.0  0.35315  0.37950  0.84210  1.0000
  O   O69       1.0  0.36326  0.33839  0.73860  1.0000
  O   O70       1.0  0.43460  0.33778  0.73806  1.0000
  H   H36       1.0  0.48457  0.37838  0.84110  1.0000
  O   O71       1.0  0.47446  0.41949  0.94460  1.0000
  O   O72       1.0  0.40312  0.42010  0.94514  1.0000
  C   C109      1.0  0.12300  0.71189  0.17463  1.0000
  C   C110      1.0  0.09374  0.69055  0.12042  1.0000
  C   C111      1.0  0.05619  0.69086  0.12071  1.0000
  C   C112      1.0  0.04791  0.71253  0.17521  1.0000
  C   C113      1.0  0.07717  0.73388  0.22941  1.0000
  C   C114      1.0  0.11472  0.73356  0.22912  1.0000
  H   H37       1.0  0.15116  0.71166  0.17441  1.0000
  O   O73       1.0  0.10119  0.67105  0.07138  1.0000
  O   O74       1.0  0.02985  0.67165  0.07193  1.0000
  H   H38       1.0  0.01975  0.71277  0.17543  1.0000
  O   O75       1.0  0.06972  0.75338  0.27845  1.0000
  O   O76       1.0  0.14106  0.75277  0.27790  1.0000
  C   C115      1.0  0.38408  0.44995  0.17560  1.0000
  C   C116      1.0  0.40606  0.44184  0.12147  1.0000
  C   C117      1.0  0.40701  0.40461  0.12194  1.0000
  C   C118      1.0  0.38599  0.37548  0.17653  1.0000
  C   C119      1.0  0.36401  0.38359  0.23065  1.0000
  C   C120      1.0  0.36306  0.42083  0.23019  1.0000
  H   H39       1.0  0.38337  0.47788  0.17525  1.0000
  O   O77       1.0  0.42498  0.46806  0.07234  1.0000
  O   O78       1.0  0.42679  0.39731  0.07323  1.0000
  H   H40       1.0  0.38670  0.34756  0.17688  1.0000
  O   O79       1.0  0.34509  0.35738  0.27979  1.0000
  O   O80       1.0  0.34328  0.42813  0.27890  1.0000
  C   C121      1.0  0.72267  0.05059  0.17631  1.0000
  C   C122      1.0  0.71527  0.02086  0.22963  1.0000
  C   C123      1.0  0.67846  0.98340  0.22884  1.0000
  C   C124      1.0  0.64906  0.97567  0.17472  1.0000
  C   C125      1.0  0.65646  0.00540  0.12140  1.0000
  C   C126      1.0  0.69327  0.04286  0.12220  1.0000
  H   H41       1.0  0.75028  0.07868  0.17691  1.0000
  O   O81       1.0  0.74174  0.02781  0.27834  1.0000
  O   O82       1.0  0.67180  0.95664  0.27683  1.0000
  H   H42       1.0  0.62145  0.94758  0.17413  1.0000
  O   O83       1.0  0.62999  0.99845  0.07270  1.0000
  O   O84       1.0  0.69993  0.06962  0.07421  1.0000
  C   C127      1.0  0.04985  0.30499  0.50880  1.0000
  C   C128      1.0  0.02788  0.31310  0.56293  1.0000
  C   C129      1.0  0.02693  0.35034  0.56246  1.0000
  C   C130      1.0  0.04795  0.37946  0.50786  1.0000
  C   C131      1.0  0.06992  0.37135  0.45374  1.0000
  C   C132      1.0  0.07087  0.33411  0.45421  1.0000
  H   H43       1.0  0.05056  0.27706  0.50916  1.0000
  O   O85       1.0  0.00895  0.28689  0.61206  1.0000
  O   O86       1.0  0.00715  0.35765  0.61117  1.0000
  H   H44       1.0  0.04724  0.40739  0.50751  1.0000
  O   O87       1.0  0.08884  0.39756  0.40461  1.0000
  O   O88       1.0  0.09065  0.32681  0.40550  1.0000
  C   C133      1.0  0.71119  0.70446  0.50817  1.0000
  C   C134      1.0  0.71858  0.73417  0.45483  1.0000
  C   C135      1.0  0.75539  0.77163  0.45559  1.0000
  C   C136      1.0  0.78481  0.77937  0.50969  1.0000
  C   C137      1.0  0.77742  0.74965  0.56303  1.0000
  C   C138      1.0  0.74061  0.71219  0.56227  1.0000
  H   H45       1.0  0.68358  0.67636  0.50761  1.0000
  O   O89       1.0  0.69210  0.72721  0.40614  1.0000
  O   O90       1.0  0.76204  0.79837  0.40758  1.0000
  H   H46       1.0  0.81242  0.80746  0.51026  1.0000
  O   O91       1.0  0.80389  0.75661  0.61172  1.0000
  O   O92       1.0  0.73395  0.68545  0.61028  1.0000
  C   C139      1.0  0.31081  0.04301  0.50977  1.0000
  C   C140      1.0  0.34007  0.06436  0.56397  1.0000
  C   C141      1.0  0.37762  0.06404  0.56368  1.0000
  C   C142      1.0  0.38590  0.04237  0.50919  1.0000
  C   C143      1.0  0.35664  0.02103  0.45498  1.0000
  C   C144      1.0  0.31909  0.02135  0.45527  1.0000
  H   H47       1.0  0.28265  0.04325  0.50998  1.0000
  O   O93       1.0  0.33262  0.08386  0.61302  1.0000
  O   O94       1.0  0.40396  0.08325  0.61247  1.0000
  H   H48       1.0  0.41406  0.04213  0.50897  1.0000
  O   O95       1.0  0.36409  0.00153  0.40593  1.0000
  O   O96       1.0  0.29275  0.00214  0.40648  1.0000
  C   C145      1.0  0.71487  0.04654  0.50779  1.0000
  C   C146      1.0  0.74398  0.06759  0.56238  1.0000
  C   C147      1.0  0.78122  0.06665  0.56285  1.0000
  C   C148      1.0  0.78935  0.04467  0.50875  1.0000
  C   C149      1.0  0.76023  0.02363  0.45417  1.0000
  C   C150      1.0  0.72300  0.02457  0.45369  1.0000
  H   H49       1.0  0.68694  0.04724  0.50743  1.0000
  O   O97       1.0  0.73667  0.08736  0.61107  1.0000
  O   O98       1.0  0.80742  0.08559  0.61198  1.0000
  H   H50       1.0  0.81727  0.04397  0.50911  1.0000
  O   O99       1.0  0.76755  0.00385  0.40547  1.0000
  O   O100      1.0  0.69679  0.00563  0.40456  1.0000
  C   C151      1.0  0.05195  0.70843  0.50903  1.0000
  C   C152      1.0  0.03029  0.71669  0.56355  1.0000
  C   C153      1.0  0.02997  0.75425  0.56389  1.0000
  C   C154      1.0  0.05132  0.78354  0.50971  1.0000
  C   C155      1.0  0.07298  0.77528  0.45518  1.0000
  C   C156      1.0  0.07330  0.73772  0.45484  1.0000
  H   H51       1.0  0.05219  0.68027  0.50877  1.0000
  O   O101      1.0  0.01109  0.69033  0.61232  1.0000
  O   O102      1.0  0.01048  0.76168  0.61296  1.0000
  H   H52       1.0  0.05108  0.81170  0.50996  1.0000
  O   O103      1.0  0.09218  0.80164  0.40642  1.0000
  O   O104      1.0  0.09279  0.73029  0.40577  1.0000
  C   C157      1.0  0.38942  0.38393  0.50962  1.0000
  C   C158      1.0  0.38203  0.35420  0.56295  1.0000
  C   C159      1.0  0.34522  0.31674  0.56217  1.0000
  C   C160      1.0  0.31581  0.30901  0.50806  1.0000
  C   C161      1.0  0.32320  0.33873  0.45473  1.0000
  C   C162      1.0  0.36000  0.37619  0.45551  1.0000
  H   H53       1.0  0.41702  0.41202  0.51021  1.0000
  O   O105      1.0  0.40850  0.36116  0.61164  1.0000
  O   O106      1.0  0.33857  0.28999  0.61016  1.0000
  H   H54       1.0  0.28820  0.28091  0.50747  1.0000
  O   O107      1.0  0.29672  0.33177  0.40603  1.0000
  O   O108      1.0  0.36665  0.40294  0.40752  1.0000
