data_image0
_chemical_formula_structural       Fe6C26H7O2H2O2HC4HO2HC26H7O2H2O2HC4HO2HC26H7O2H2O2HC4HO2HC26H7O2H2O2HC4HO2HC26H7O2H2O2HC4HO2HC26H7O2H2O2HC4HO2HFe6C6HO2HO2C6HO2HO2C6HO2HO2Cu3C6HO2HO2C6HO2HO2C6HO2HO2C6HO2HO2C6HO2HO2C6HO2HO2C6HO2HO2C6HO2HO2C6HO2HO2
_chemical_formula_sum              "Fe12 C252 H96 O84 Cu3"
_cell_length_a       50.9945
_cell_length_b       50.8454
_cell_length_c       21.4888
_cell_angle_alpha    90.1751
_cell_angle_beta     89.7551
_cell_angle_gamma    119.403

_space_group_name_H-M_alt    "P 1"
_space_group_IT_number       1

loop_
  _space_group_symop_operation_xyz
  'x, y, z'

loop_
  _atom_site_type_symbol
  _atom_site_label
  _atom_site_symmetry_multiplicity
  _atom_site_fract_x
  _atom_site_fract_y
  _atom_site_fract_z
  _atom_site_occupancy
  Fe  Fe1       1.0  0.57301  0.03159  0.03767  1.0000
  Fe  Fe2       1.0  0.02208  0.33517  0.03953  1.0000
  Fe  Fe3       1.0  0.72075  0.48084  0.03776  1.0000
  Fe  Fe4       1.0  0.72158  0.03546  0.04015  1.0000
  Fe  Fe5       1.0  0.02419  0.48334  0.03882  1.0000
  Fe  Fe6       1.0  0.57485  0.33552  0.03789  1.0000
  C   C1        1.0  0.05979  0.27739  0.43613  1.0000
  C   C2        1.0  0.08354  0.27258  0.47045  1.0000
  C   C3        1.0  0.11217  0.27755  0.43604  1.0000
  C   C4        1.0  0.11705  0.28733  0.36731  1.0000
  C   C5        1.0  0.09329  0.29215  0.33297  1.0000
  C   C6        1.0  0.06466  0.28717  0.36738  1.0000
  C   C7        1.0  0.14568  0.29231  0.33291  1.0000
  C   C8        1.0  0.16944  0.28750  0.36722  1.0000
  C   C9        1.0  0.16456  0.27772  0.43598  1.0000
  C   C10       1.0  0.13593  0.27274  0.47039  1.0000
  C   C11       1.0  0.03116  0.27241  0.47054  1.0000
  C   C12       1.0  0.02628  0.26263  0.53927  1.0000
  C   C13       1.0  0.05004  0.25782  0.57361  1.0000
  C   C14       1.0  0.07867  0.26279  0.53920  1.0000
  C   C15       1.0  0.04091  0.29199  0.33303  1.0000
  C   C16       1.0  0.04578  0.30177  0.26431  1.0000
  C   C17       1.0  0.07441  0.30674  0.22990  1.0000
  C   C18       1.0  0.09817  0.30193  0.26421  1.0000
  C   C19       1.0  0.07928  0.31653  0.16114  1.0000
  C   C20       1.0  0.05553  0.32134  0.12679  1.0000
  C   C21       1.0  0.02690  0.31636  0.16120  1.0000
  C   C22       1.0  0.02202  0.30658  0.22996  1.0000
  C   C23       1.0  0.18832  0.27290  0.47032  1.0000
  C   C24       1.0  0.21695  0.27788  0.43591  1.0000
  C   C25       1.0  0.22182  0.28766  0.36716  1.0000
  C   C26       1.0  0.19807  0.29248  0.33281  1.0000
  H   H1        1.0  0.14929  0.29956  0.28199  1.0000
  H   H2        1.0  0.13232  0.26550  0.52127  1.0000
  H   H3        1.0  0.01357  0.27598  0.44510  1.0000
  H   H4        1.0  0.09626  0.25923  0.56461  1.0000
  H   H5        1.0  0.01971  0.28830  0.35850  1.0000
  H   H6        1.0  0.11936  0.30561  0.23873  1.0000
  H   H7        1.0  0.10048  0.32021  0.13566  1.0000
  O   O1        1.0  0.06027  0.33087  0.05983  1.0000
  O   O2        1.0  0.00376  0.32105  0.12775  1.0000
  H   H8        1.0  0.00010  0.30290  0.25543  1.0000
  H   H9        1.0  0.18471  0.26566  0.52120  1.0000
  O   O3        1.0  0.24009  0.27319  0.46936  1.0000
  O   O4        1.0  0.24971  0.29251  0.33364  1.0000
  H   H10       1.0  0.20167  0.29972  0.28193  1.0000
  C   C27       1.0  0.04517  0.24803  0.64237  1.0000
  C   C28       1.0  0.01654  0.24306  0.67678  1.0000
  C   C29       1.0  0.99278  0.24787  0.64243  1.0000
  C   C30       1.0  0.99765  0.25766  0.57367  1.0000
  H   H11       1.0  0.06276  0.24447  0.66778  1.0000
  O   O5        1.0  0.01180  0.23353  0.74374  1.0000
  O   O6        1.0  0.96490  0.24303  0.67595  1.0000
  H   H12       1.0  0.98007  0.26122  0.54827  1.0000
  C   C31       1.0  0.76220  0.59425  0.33267  1.0000
  C   C32       1.0  0.76702  0.57041  0.36692  1.0000
  C   C33       1.0  0.77677  0.57524  0.43563  1.0000
  C   C34       1.0  0.78172  0.60391  0.47007  1.0000
  C   C35       1.0  0.77691  0.62776  0.43582  1.0000
  C   C36       1.0  0.76715  0.62293  0.36711  1.0000
  C   C37       1.0  0.79147  0.60874  0.53878  1.0000
  C   C38       1.0  0.79629  0.58490  0.57303  1.0000
  C   C39       1.0  0.79134  0.55622  0.53859  1.0000
  C   C40       1.0  0.78158  0.55139  0.46988  1.0000
  C   C41       1.0  0.75245  0.58942  0.26396  1.0000
  C   C42       1.0  0.74750  0.56076  0.22952  1.0000
  C   C43       1.0  0.75231  0.53690  0.26377  1.0000
  C   C44       1.0  0.76207  0.54173  0.33248  1.0000
  C   C45       1.0  0.76234  0.64679  0.33286  1.0000
  C   C46       1.0  0.76728  0.67545  0.36731  1.0000
  C   C47       1.0  0.77704  0.68028  0.43601  1.0000
  C   C48       1.0  0.78185  0.65645  0.47027  1.0000
  C   C49       1.0  0.78198  0.70896  0.47046  1.0000
  C   C50       1.0  0.77717  0.73282  0.43620  1.0000
  C   C51       1.0  0.76741  0.72799  0.36750  1.0000
  C   C52       1.0  0.76247  0.69931  0.33305  1.0000
  C   C53       1.0  0.79615  0.53236  0.57284  1.0000
  C   C54       1.0  0.80591  0.53719  0.64155  1.0000
  C   C55       1.0  0.81086  0.56588  0.67599  1.0000
  C   C56       1.0  0.80604  0.58973  0.64174  1.0000
  H   H13       1.0  0.79514  0.62998  0.56428  1.0000
  H   H14       1.0  0.77792  0.53017  0.44438  1.0000
  H   H15       1.0  0.74888  0.60709  0.23861  1.0000
  H   H16       1.0  0.76563  0.52408  0.35784  1.0000
  H   H17       1.0  0.75511  0.64321  0.28200  1.0000
  H   H18       1.0  0.78907  0.66002  0.52112  1.0000
  H   H19       1.0  0.78921  0.71254  0.52132  1.0000
  O   O7        1.0  0.78199  0.76075  0.46975  1.0000
  O   O8        1.0  0.76273  0.75122  0.33413  1.0000
  H   H20       1.0  0.75525  0.69573  0.28219  1.0000
  H   H21       1.0  0.79249  0.51114  0.54734  1.0000
  O   O9        1.0  0.81060  0.51397  0.67491  1.0000
  O   O10       1.0  0.82036  0.57058  0.74291  1.0000
  H   H22       1.0  0.80970  0.61095  0.66724  1.0000
  C   C57       1.0  0.74737  0.50822  0.22933  1.0000
  C   C58       1.0  0.73761  0.50339  0.16062  1.0000
  C   C59       1.0  0.73280  0.52724  0.12637  1.0000
  C   C60       1.0  0.73774  0.55593  0.16081  1.0000
  H   H23       1.0  0.75093  0.49057  0.25468  1.0000
  O   O11       1.0  0.73280  0.47546  0.12707  1.0000
  O   O12       1.0  0.72330  0.52254  0.05945  1.0000
  H   H24       1.0  0.73418  0.57357  0.13545  1.0000
  C   C61       1.0  0.45025  0.97074  0.47052  1.0000
  C   C62       1.0  0.47867  0.99419  0.43604  1.0000
  C   C63       1.0  0.48357  0.98924  0.36719  1.0000
  C   C64       1.0  0.46007  0.96083  0.33281  1.0000
  C   C65       1.0  0.43163  0.93736  0.36729  1.0000
  C   C66       1.0  0.42673  0.94231  0.43614  1.0000
  C   C67       1.0  0.46497  0.95587  0.26396  1.0000
  C   C68       1.0  0.49338  0.97933  0.22949  1.0000
  C   C69       1.0  0.51691  0.00775  0.26386  1.0000
  C   C70       1.0  0.51200  0.01271  0.33271  1.0000
  C   C71       1.0  0.44535  0.97570  0.53937  1.0000
  C   C72       1.0  0.46885  0.00410  0.57375  1.0000
  C   C73       1.0  0.49729  0.02757  0.53927  1.0000
  C   C74       1.0  0.50219  0.02262  0.47042  1.0000
  C   C75       1.0  0.39830  0.91884  0.47062  1.0000
  C   C76       1.0  0.37479  0.89044  0.43624  1.0000
  C   C77       1.0  0.37970  0.88548  0.36739  1.0000
  C   C78       1.0  0.40811  0.90893  0.33292  1.0000
  C   C79       1.0  0.35617  0.85705  0.33302  1.0000
  C   C80       1.0  0.32774  0.83358  0.36749  1.0000
  C   C81       1.0  0.32283  0.83854  0.43634  1.0000
  C   C82       1.0  0.34636  0.86696  0.47072  1.0000
  C   C83       1.0  0.54534  0.03122  0.22939  1.0000
  C   C84       1.0  0.55025  0.02627  0.16053  1.0000
  C   C85       1.0  0.52672  0.99784  0.12616  1.0000
  C   C86       1.0  0.49829  0.97437  0.16063  1.0000
  H   H25       1.0  0.44755  0.93482  0.23852  1.0000
  H   H26       1.0  0.52941  0.03374  0.35816  1.0000
  H   H27       1.0  0.42429  0.95831  0.56489  1.0000
  H   H28       1.0  0.52323  0.03998  0.44490  1.0000
  H   H29       1.0  0.39466  0.92251  0.52159  1.0000
  H   H30       1.0  0.41174  0.90526  0.28195  1.0000
  H   H31       1.0  0.35980  0.85339  0.28205  1.0000
  O   O13       1.0  0.30483  0.80590  0.33401  1.0000
  O   O14       1.0  0.29514  0.81568  0.46992  1.0000
  H   H32       1.0  0.34273  0.87063  0.52169  1.0000
  H   H33       1.0  0.56275  0.05226  0.25483  1.0000
  O   O15       1.0  0.57793  0.04912  0.12695  1.0000
  O   O16       1.0  0.53150  0.99302  0.05909  1.0000
  H   H34       1.0  0.48088  0.95334  0.13519  1.0000
  C   C87       1.0  0.52081  0.05600  0.57365  1.0000
  C   C88       1.0  0.51591  0.06096  0.64250  1.0000
  C   C89       1.0  0.48747  0.03748  0.67698  1.0000
  C   C90       1.0  0.46395  0.00906  0.64260  1.0000
  H   H35       1.0  0.54185  0.07337  0.54813  1.0000
  O   O17       1.0  0.53881  0.08864  0.67598  1.0000
  O   O18       1.0  0.48270  0.04231  0.74404  1.0000
  H   H36       1.0  0.44291  0.99169  0.66812  1.0000
  C   C91       1.0  0.45214  0.27514  0.47078  1.0000
  C   C92       1.0  0.48076  0.28011  0.43637  1.0000
  C   C93       1.0  0.48563  0.28990  0.36763  1.0000
  C   C94       1.0  0.46189  0.29471  0.33329  1.0000
  C   C95       1.0  0.43325  0.28973  0.36770  1.0000
  C   C96       1.0  0.42838  0.27995  0.43645  1.0000
  C   C97       1.0  0.46676  0.30449  0.26454  1.0000
  C   C98       1.0  0.49538  0.30947  0.23013  1.0000
  C   C99       1.0  0.51914  0.30466  0.26447  1.0000
  C   C100      1.0  0.51427  0.29487  0.33322  1.0000
  C   C101      1.0  0.44727  0.26535  0.53953  1.0000
  C   C102      1.0  0.47101  0.26054  0.57387  1.0000
  C   C103      1.0  0.49965  0.26552  0.53946  1.0000
  C   C104      1.0  0.50452  0.27530  0.47071  1.0000
  C   C105      1.0  0.39974  0.27497  0.47086  1.0000
  C   C106      1.0  0.37600  0.27978  0.43652  1.0000
  C   C107      1.0  0.38087  0.28957  0.36777  1.0000
  C   C108      1.0  0.40949  0.29454  0.33336  1.0000
  C   C109      1.0  0.35711  0.29437  0.33344  1.0000
  C   C110      1.0  0.32847  0.28940  0.36785  1.0000
  C   C111      1.0  0.32360  0.27961  0.43659  1.0000
  C   C112      1.0  0.34736  0.27480  0.47093  1.0000
  C   C113      1.0  0.54778  0.30963  0.23006  1.0000
  C   C114      1.0  0.55265  0.31942  0.16131  1.0000
  C   C115      1.0  0.52889  0.32423  0.12698  1.0000
  C   C116      1.0  0.50025  0.31925  0.16139  1.0000
  H   H37       1.0  0.44916  0.30805  0.23913  1.0000
  H   H38       1.0  0.53185  0.29131  0.35864  1.0000
  H   H39       1.0  0.42606  0.26167  0.56500  1.0000
  H   H40       1.0  0.52571  0.27899  0.44524  1.0000
  H   H41       1.0  0.39613  0.26773  0.52175  1.0000
  H   H42       1.0  0.41310  0.30178  0.28247  1.0000
  H   H43       1.0  0.36071  0.30162  0.28255  1.0000
  O   O19       1.0  0.30533  0.29408  0.33440  1.0000
  O   O20       1.0  0.29571  0.27477  0.47011  1.0000
  H   H44       1.0  0.34375  0.26756  0.52182  1.0000
  H   H45       1.0  0.56536  0.30607  0.25548  1.0000
  O   O21       1.0  0.58054  0.32426  0.12780  1.0000
  O   O22       1.0  0.53364  0.33376  0.06002  1.0000
  H   H46       1.0  0.48267  0.32281  0.13597  1.0000
  C   C117      1.0  0.52341  0.26071  0.57379  1.0000
  C   C118      1.0  0.51854  0.25092  0.64254  1.0000
  C   C119      1.0  0.48990  0.24595  0.67695  1.0000
  C   C120      1.0  0.46614  0.25076  0.64261  1.0000
  H   H47       1.0  0.54460  0.26439  0.54832  1.0000
  O   O23       1.0  0.54168  0.24624  0.67599  1.0000
  O   O24       1.0  0.48516  0.23642  0.74391  1.0000
  H   H48       1.0  0.44495  0.24708  0.66809  1.0000
  C   C121      1.0  0.77841  0.99692  0.43685  1.0000
  C   C122      1.0  0.78322  0.97307  0.47108  1.0000
  C   C123      1.0  0.77827  0.94440  0.43663  1.0000
  C   C124      1.0  0.76852  0.93956  0.36795  1.0000
  C   C125      1.0  0.76371  0.96341  0.33369  1.0000
  C   C126      1.0  0.76865  0.99209  0.36813  1.0000
  C   C127      1.0  0.76358  0.91089  0.33351  1.0000
  C   C128      1.0  0.76839  0.88704  0.36774  1.0000
  C   C129      1.0  0.77814  0.89187  0.43645  1.0000
  C   C130      1.0  0.78309  0.92055  0.47090  1.0000
  C   C131      1.0  0.78335  0.02559  0.47130  1.0000
  C   C132      1.0  0.79311  0.03043  0.53998  1.0000
  C   C133      1.0  0.79792  0.00658  0.57424  1.0000
  C   C134      1.0  0.79298  0.97790  0.53980  1.0000
  C   C135      1.0  0.76384  0.01594  0.33387  1.0000
  C   C136      1.0  0.75408  0.01111  0.26519  1.0000
  C   C137      1.0  0.74914  0.98243  0.23074  1.0000
  C   C138      1.0  0.75395  0.95859  0.26497  1.0000
  C   C139      1.0  0.73938  0.97760  0.16203  1.0000
  C   C140      1.0  0.73456  0.00145  0.12776  1.0000
  C   C141      1.0  0.73951  0.03013  0.16221  1.0000
  C   C142      1.0  0.74927  0.03496  0.23092  1.0000
  C   C143      1.0  0.78296  0.86802  0.47072  1.0000
  C   C144      1.0  0.77801  0.83934  0.43627  1.0000
  C   C145      1.0  0.76826  0.83451  0.36756  1.0000
  C   C146      1.0  0.76344  0.85837  0.33329  1.0000
  H   H49       1.0  0.75635  0.90732  0.28262  1.0000
  H   H50       1.0  0.79031  0.92412  0.52175  1.0000
  H   H51       1.0  0.77979  0.04325  0.44591  1.0000
  H   H52       1.0  0.79654  0.96025  0.56514  1.0000
  H   H53       1.0  0.76750  0.03717  0.35937  1.0000
  H   H54       1.0  0.75029  0.93736  0.23947  1.0000
  H   H55       1.0  0.73572  0.95637  0.13652  1.0000
  O   O25       1.0  0.72506  0.99675  0.06084  1.0000
  O   O26       1.0  0.73482  0.05336  0.12884  1.0000
  H   H56       1.0  0.75293  0.05618  0.25642  1.0000
  H   H57       1.0  0.79018  0.87160  0.52157  1.0000
  O   O27       1.0  0.78270  0.81611  0.46964  1.0000
  O   O28       1.0  0.76344  0.80658  0.33400  1.0000
  H   H58       1.0  0.75622  0.85479  0.28244  1.0000
  C   C147      1.0  0.80768  0.01140  0.64296  1.0000
  C   C148      1.0  0.81263  0.04008  0.67741  1.0000
  C   C149      1.0  0.80781  0.06393  0.64314  1.0000
  C   C150      1.0  0.79805  0.05910  0.57442  1.0000
  H   H59       1.0  0.81124  0.99375  0.66831  1.0000
  O   O29       1.0  0.82213  0.04479  0.74432  1.0000
  O   O30       1.0  0.81263  0.09186  0.67669  1.0000
  H   H60       1.0  0.79449  0.07676  0.54908  1.0000
  C   C151      1.0  0.06675  0.57306  0.36789  1.0000
  C   C152      1.0  0.09517  0.59652  0.33344  1.0000
  C   C153      1.0  0.11870  0.62494  0.36781  1.0000
  C   C154      1.0  0.11380  0.62990  0.43664  1.0000
  C   C155      1.0  0.08537  0.60643  0.47113  1.0000
  C   C156      1.0  0.06185  0.57802  0.43675  1.0000
  C   C157      1.0  0.13732  0.65832  0.47101  1.0000
  C   C158      1.0  0.16574  0.68177  0.43656  1.0000
  C   C159      1.0  0.17065  0.67682  0.36770  1.0000
  C   C160      1.0  0.14713  0.64840  0.33332  1.0000
  C   C161      1.0  0.04323  0.54464  0.33351  1.0000
  C   C162      1.0  0.04813  0.53968  0.26469  1.0000
  C   C163      1.0  0.07656  0.56314  0.23020  1.0000
  C   C164      1.0  0.10008  0.59156  0.26457  1.0000
  C   C165      1.0  0.03341  0.55455  0.47124  1.0000
  C   C166      1.0  0.02852  0.55951  0.54007  1.0000
  C   C167      1.0  0.05204  0.58793  0.57444  1.0000
  C   C168      1.0  0.08046  0.61139  0.53999  1.0000
  C   C169      1.0  0.04713  0.59289  0.64331  1.0000
  C   C170      1.0  0.01870  0.56942  0.67780  1.0000
  C   C171      1.0  0.99518  0.54101  0.64342  1.0000
  C   C172      1.0  0.00010  0.53605  0.57456  1.0000
  C   C173      1.0  0.19908  0.70028  0.33321  1.0000
  C   C174      1.0  0.22260  0.72870  0.36758  1.0000
  C   C175      1.0  0.21770  0.73366  0.43645  1.0000
  C   C176      1.0  0.18927  0.71019  0.47094  1.0000
  H   H61       1.0  0.13368  0.66198  0.52201  1.0000
  H   H62       1.0  0.15075  0.64473  0.28236  1.0000
  H   H63       1.0  0.02218  0.52727  0.35906  1.0000
  H   H64       1.0  0.12112  0.60893  0.23906  1.0000
  H   H65       1.0  0.01600  0.53351  0.44580  1.0000
  H   H66       1.0  0.09787  0.63243  0.56544  1.0000
  H   H67       1.0  0.06455  0.61392  0.66876  1.0000
  O   O31       1.0  0.01393  0.57425  0.74486  1.0000
  O   O32       1.0  0.96749  0.51815  0.67700  1.0000
  H   H68       1.0  0.98267  0.51501  0.54911  1.0000
  H   H69       1.0  0.20271  0.69661  0.28225  1.0000
  O   O33       1.0  0.25029  0.75155  0.33400  1.0000
  O   O34       1.0  0.24061  0.76134  0.46993  1.0000
  H   H70       1.0  0.18564  0.71386  0.52189  1.0000
  C   C177      1.0  0.08146  0.55819  0.16133  1.0000
  C   C178      1.0  0.05794  0.52977  0.12696  1.0000
  C   C179      1.0  0.02951  0.50631  0.16145  1.0000
  C   C180      1.0  0.02460  0.51126  0.23031  1.0000
  H   H71       1.0  0.10251  0.57555  0.13582  1.0000
  O   O35       1.0  0.06272  0.52494  0.05990  1.0000
  O   O36       1.0  0.00660  0.47863  0.12797  1.0000
  H   H72       1.0  0.00356  0.49390  0.25583  1.0000
  Fe  Fe7       1.0  0.82384  0.53186  0.76364  1.0000
  Fe  Fe8       1.0  0.52117  0.08394  0.76511  1.0000
  Fe  Fe9       1.0  0.97058  0.23180  0.76584  1.0000
  Fe  Fe10      1.0  0.97240  0.53573  0.76625  1.0000
  Fe  Fe11      1.0  0.52336  0.23214  0.76421  1.0000
  Fe  Fe12      1.0  0.82466  0.08648  0.76600  1.0000
  C   C181      1.0  0.66170  0.06437  0.02104  1.0000
  C   C182      1.0  0.63039  0.04825  0.02851  1.0000
  C   C183      1.0  0.61610  0.01764  0.04453  1.0000
  C   C184      1.0  0.63311  0.00314  0.05309  1.0000
  C   C185      1.0  0.66442  0.01925  0.04562  1.0000
  C   C186      1.0  0.67871  0.04987  0.02960  1.0000
  H   H73       1.0  0.67242  0.08733  0.00903  1.0000
  O   O37       1.0  0.61508  0.06130  0.02082  1.0000
  O   O38       1.0  0.58792  0.00313  0.05126  1.0000
  H   H74       1.0  0.62239  0.98018  0.06510  1.0000
  O   O39       1.0  0.67973  0.00621  0.05331  1.0000
  O   O40       1.0  0.70689  0.06438  0.02287  1.0000
  C   C187      1.0  0.05346  0.42381  0.05325  1.0000
  C   C188      1.0  0.03776  0.39242  0.04548  1.0000
  C   C189      1.0  0.00723  0.37777  0.02957  1.0000
  C   C190      1.0  0.99239  0.39449  0.02144  1.0000
  C   C191      1.0  0.00808  0.42587  0.02921  1.0000
  C   C192      1.0  0.03862  0.44053  0.04512  1.0000
  H   H75       1.0  0.07635  0.43480  0.06518  1.0000
  O   O41       1.0  0.05112  0.37737  0.05280  1.0000
  O   O42       1.0  0.99311  0.34952  0.02257  1.0000
  H   H76       1.0  0.96949  0.38350  0.00951  1.0000
  O   O43       1.0  0.99473  0.44092  0.02190  1.0000
  O   O44       1.0  0.05274  0.46877  0.05212  1.0000
  C   C193      1.0  0.66317  0.39244  0.01960  1.0000
  C   C194      1.0  0.63190  0.37671  0.02780  1.0000
  C   C195      1.0  0.61665  0.39232  0.04416  1.0000
  C   C196      1.0  0.63268  0.42367  0.05233  1.0000
  C   C197      1.0  0.66395  0.43941  0.04414  1.0000
  C   C198      1.0  0.67920  0.42379  0.02777  1.0000
  H   H77       1.0  0.67460  0.38073  0.00733  1.0000
  O   O45       1.0  0.61747  0.34849  0.02044  1.0000
  O   O46       1.0  0.58851  0.37815  0.05153  1.0000
  H   H78       1.0  0.62125  0.43538  0.06460  1.0000
  O   O47       1.0  0.67838  0.46762  0.05149  1.0000
  O   O48       1.0  0.70734  0.43796  0.02040  1.0000
  Cu  Cu1       1.0  0.27271  0.28364  0.40187  1.0000
  Cu  Cu2       1.0  0.77271  0.78366  0.40188  1.0000
  Cu  Cu3       1.0  0.27272  0.78362  0.40197  1.0000
  C   C199      1.0  0.91230  0.56418  0.75072  1.0000
  C   C200      1.0  0.88099  0.54807  0.75818  1.0000
  C   C201      1.0  0.86670  0.51746  0.77425  1.0000
  C   C202      1.0  0.88371  0.50296  0.78285  1.0000
  C   C203      1.0  0.91502  0.51908  0.77538  1.0000
  C   C204      1.0  0.92931  0.54969  0.75932  1.0000
  H   H79       1.0  0.92302  0.58714  0.73867  1.0000
  O   O49       1.0  0.86568  0.56111  0.75044  1.0000
  O   O50       1.0  0.83852  0.50295  0.78097  1.0000
  H   H80       1.0  0.87299  0.48000  0.79490  1.0000
  O   O51       1.0  0.93033  0.50603  0.78312  1.0000
  O   O52       1.0  0.95749  0.56419  0.75260  1.0000
  C   C205      1.0  0.55301  0.17279  0.78238  1.0000
  C   C206      1.0  0.53730  0.14140  0.77465  1.0000
  C   C207      1.0  0.50676  0.12676  0.75876  1.0000
  C   C208      1.0  0.49194  0.14350  0.75060  1.0000
  C   C209      1.0  0.50765  0.17488  0.75833  1.0000
  C   C210      1.0  0.53819  0.18953  0.77422  1.0000
  H   H81       1.0  0.57591  0.18377  0.79430  1.0000
  O   O53       1.0  0.55064  0.12634  0.78200  1.0000
  O   O54       1.0  0.49262  0.09851  0.75181  1.0000
  H   H82       1.0  0.46904  0.13251  0.73868  1.0000
  O   O55       1.0  0.49431  0.18994  0.75098  1.0000
  O   O56       1.0  0.55233  0.21777  0.78117  1.0000
  C   C211      1.0  0.91274  0.14365  0.75142  1.0000
  C   C212      1.0  0.88146  0.12791  0.75962  1.0000
  C   C213      1.0  0.86623  0.14353  0.77598  1.0000
  C   C214      1.0  0.88226  0.17488  0.78414  1.0000
  C   C215      1.0  0.91353  0.19062  0.77594  1.0000
  C   C216      1.0  0.92877  0.17500  0.75958  1.0000
  H   H83       1.0  0.92417  0.13193  0.73914  1.0000
  O   O57       1.0  0.86703  0.09970  0.75227  1.0000
  O   O58       1.0  0.83808  0.12937  0.78336  1.0000
  H   H84       1.0  0.87083  0.18660  0.79641  1.0000
  O   O59       1.0  0.92796  0.21883  0.78329  1.0000
  O   O60       1.0  0.95692  0.18915  0.75220  1.0000
  C   C217      1.0  0.01689  0.30678  0.86469  1.0000
  C   C218      1.0  0.99813  0.27818  0.83936  1.0000
  C   C219      1.0  0.97743  0.25484  0.87742  1.0000
  C   C220      1.0  0.97548  0.26011  0.94081  1.0000
  C   C221      1.0  0.99424  0.28871  0.96614  1.0000
  C   C222      1.0  0.01494  0.31205  0.92809  1.0000
  H   H85       1.0  0.03242  0.32429  0.83615  1.0000
  O   O61       1.0  0.99990  0.27344  0.78230  1.0000
  O   O62       1.0  0.96055  0.22910  0.85461  1.0000
  H   H86       1.0  0.95995  0.24261  0.96935  1.0000
  O   O63       1.0  0.99248  0.29345  0.02320  1.0000
  O   O64       1.0  0.03182  0.33779  0.95089  1.0000
  C   C223      1.0  0.79700  0.51854  0.94066  1.0000
  C   C224      1.0  0.76776  0.50403  0.96510  1.0000
  C   C225      1.0  0.74297  0.49158  0.92502  1.0000
  C   C226      1.0  0.74744  0.49364  0.86050  1.0000
  C   C227      1.0  0.77669  0.50815  0.83606  1.0000
  C   C228      1.0  0.80147  0.52060  0.87613  1.0000
  H   H87       1.0  0.81559  0.52788  0.97071  1.0000
  O   O65       1.0  0.76374  0.50218  0.02317  1.0000
  O   O66       1.0  0.71665  0.47853  0.94702  1.0000
  H   H88       1.0  0.72885  0.48430  0.83044  1.0000
  O   O67       1.0  0.78070  0.51000  0.77799  1.0000
  O   O68       1.0  0.82779  0.53366  0.85413  1.0000
  C   C229      1.0  0.54355  0.07791  0.94009  1.0000
  C   C230      1.0  0.53677  0.07642  0.87668  1.0000
  C   C231      1.0  0.54021  0.05613  0.83791  1.0000
  C   C232      1.0  0.55043  0.03734  0.86256  1.0000
  C   C233      1.0  0.55722  0.03883  0.92598  1.0000
  C   C234      1.0  0.55378  0.05912  0.96474  1.0000
  H   H89       1.0  0.54097  0.09313  0.96916  1.0000
  O   O69       1.0  0.52757  0.09333  0.85449  1.0000
  O   O70       1.0  0.53410  0.05478  0.78084  1.0000
  H   H90       1.0  0.55301  0.02212  0.83349  1.0000
  O   O71       1.0  0.56642  0.02192  0.94816  1.0000
  O   O72       1.0  0.55988  0.06047  0.02181  1.0000
  C   C235      1.0  0.79797  0.07374  0.94327  1.0000
  C   C236      1.0  0.76873  0.05921  0.96772  1.0000
  C   C237      1.0  0.74394  0.04670  0.92764  1.0000
  C   C238      1.0  0.74841  0.04872  0.86312  1.0000
  C   C239      1.0  0.77766  0.06326  0.83867  1.0000
  C   C240      1.0  0.80244  0.07577  0.87875  1.0000
  H   H91       1.0  0.81656  0.08312  0.97333  1.0000
  O   O73       1.0  0.76471  0.05738  0.02579  1.0000
  O   O74       1.0  0.71762  0.03361  0.94965  1.0000
  H   H92       1.0  0.72982  0.03934  0.83307  1.0000
  O   O75       1.0  0.78167  0.06508  0.78060  1.0000
  O   O76       1.0  0.82876  0.08885  0.85674  1.0000
  C   C241      1.0  0.01875  0.50636  0.86395  1.0000
  C   C242      1.0  0.00010  0.51667  0.83924  1.0000
  C   C243      1.0  0.97971  0.51999  0.87790  1.0000
  C   C244      1.0  0.97802  0.51299  0.94126  1.0000
  C   C245      1.0  0.99670  0.50267  0.96597  1.0000
  C   C246      1.0  0.01706  0.49936  0.92732  1.0000
  H   H93       1.0  0.03402  0.50388  0.83496  1.0000
  O   O77       1.0  0.00159  0.52297  0.78222  1.0000
  O   O78       1.0  0.96291  0.52927  0.85566  1.0000
  H   H94       1.0  0.96275  0.51547  0.97026  1.0000
  O   O79       1.0  0.99518  0.49637  0.02300  1.0000
  O   O80       1.0  0.03386  0.49008  0.94955  1.0000
  C   C247      1.0  0.54637  0.26028  0.93901  1.0000
  C   C248      1.0  0.53942  0.25514  0.87563  1.0000
  C   C249      1.0  0.54231  0.27873  0.83760  1.0000
  C   C250      1.0  0.55215  0.30746  0.86294  1.0000
  C   C251      1.0  0.55911  0.31260  0.92632  1.0000
  C   C252      1.0  0.55622  0.28901  0.96436  1.0000
  H   H95       1.0  0.54420  0.24258  0.96753  1.0000
  O   O81       1.0  0.53055  0.22928  0.85282  1.0000
  O   O82       1.0  0.53604  0.27411  0.78055  1.0000
  H   H96       1.0  0.55432  0.32516  0.83442  1.0000
  O   O83       1.0  0.56797  0.33846  0.94914  1.0000
  O   O84       1.0  0.56248  0.29363  0.02140  1.0000
