data_image0
_chemical_formula_structural       Fe6C18HO2H2O2H2O2HC18HO2H2O2H2O2HC18HO2H2O2H2O2HC18HO2H2O2H2O2HC18HO2H2O2H2O2HC18HO2H2O2H2O2HFe6C6HO2HO2C6HO2HO2C6HO2HO2Cu3C6HO2HO2C6HO2HO2C6HO2HO2C6HO2HO2C6HO2HO2C6HO2HO2C6HO2HO2C6HO2HO2C6HO2HO2
_chemical_formula_sum              "Fe12 C180 H60 O84 Cu3"
_cell_length_a       40.1244
_cell_length_b       40.5574
_cell_length_c       16.1611
_cell_angle_alpha    90.1862
_cell_angle_beta     90.0628
_cell_angle_gamma    119.832

_space_group_name_H-M_alt    "P 1"
_space_group_IT_number       1

loop_
  _space_group_symop_operation_xyz
  'x, y, z'

loop_
  _atom_site_type_symbol
  _atom_site_label
  _atom_site_symmetry_multiplicity
  _atom_site_fract_x
  _atom_site_fract_y
  _atom_site_fract_z
  _atom_site_occupancy
  Fe  Fe1       1.0  0.48110  0.01134  0.04486  1.0000
  Fe  Fe2       1.0  0.02769  0.37634  0.04500  1.0000
  Fe  Fe3       1.0  0.66264  0.55955  0.04358  1.0000
  Fe  Fe4       1.0  0.66903  0.01532  0.05155  1.0000
  Fe  Fe5       1.0  0.02536  0.55915  0.05087  1.0000
  Fe  Fe6       1.0  0.48263  0.37107  0.05213  1.0000
  C   C1        1.0  0.03827  0.30884  0.39077  1.0000
  C   C2        1.0  0.06438  0.30097  0.43125  1.0000
  C   C3        1.0  0.09843  0.30831  0.39184  1.0000
  C   C4        1.0  0.10638  0.32352  0.31194  1.0000
  C   C5        1.0  0.08027  0.33140  0.27146  1.0000
  C   C6        1.0  0.04622  0.32406  0.31087  1.0000
  C   C7        1.0  0.14044  0.33086  0.27253  1.0000
  C   C8        1.0  0.16654  0.32299  0.31301  1.0000
  C   C9        1.0  0.15860  0.30778  0.39291  1.0000
  C   C10       1.0  0.12454  0.30044  0.43233  1.0000
  C   C11       1.0  0.00421  0.30150  0.43018  1.0000
  C   C12       1.0  0.99627  0.28629  0.51008  1.0000
  C   C13       1.0  0.02237  0.27842  0.55057  1.0000
  C   C14       1.0  0.05643  0.28576  0.51115  1.0000
  C   C15       1.0  0.02011  0.33193  0.27038  1.0000
  C   C16       1.0  0.02806  0.34714  0.19049  1.0000
  C   C17       1.0  0.06211  0.35448  0.15107  1.0000
  C   C18       1.0  0.08822  0.34661  0.19156  1.0000
  H   H1        1.0  0.14640  0.34227  0.21260  1.0000
  O   O1        1.0  0.19719  0.32960  0.27754  1.0000
  O   O2        1.0  0.18209  0.30070  0.42935  1.0000
  H   H2        1.0  0.11858  0.28903  0.49225  1.0000
  H   H3        1.0  0.98463  0.30741  0.39982  1.0000
  O   O3        1.0  0.96562  0.27968  0.54555  1.0000
  O   O4        1.0  0.01522  0.26473  0.62248  1.0000
  H   H4        1.0  0.07601  0.27986  0.54152  1.0000
  H   H5        1.0  0.99457  0.32642  0.29995  1.0000
  O   O5        1.0  0.00456  0.35422  0.15405  1.0000
  O   O6        1.0  0.06926  0.36817  0.07916  1.0000
  H   H6        1.0  0.11376  0.35211  0.16200  1.0000
  C   C19       1.0  0.70801  0.65631  0.27112  1.0000
  C   C20       1.0  0.71534  0.62989  0.31063  1.0000
  C   C21       1.0  0.73071  0.63718  0.39078  1.0000
  C   C22       1.0  0.73876  0.67090  0.43142  1.0000
  C   C23       1.0  0.73143  0.69732  0.39191  1.0000
  C   C24       1.0  0.71606  0.69003  0.31176  1.0000
  C   C25       1.0  0.75413  0.67819  0.51157  1.0000
  C   C26       1.0  0.76146  0.65177  0.55107  1.0000
  C   C27       1.0  0.75342  0.61806  0.51043  1.0000
  C   C28       1.0  0.73804  0.61076  0.43029  1.0000
  C   C29       1.0  0.69263  0.64901  0.19098  1.0000
  C   C30       1.0  0.68459  0.61530  0.15034  1.0000
  C   C31       1.0  0.69192  0.58888  0.18984  1.0000
  C   C32       1.0  0.70729  0.59617  0.26999  1.0000
  C   C33       1.0  0.70873  0.71645  0.27225  1.0000
  C   C34       1.0  0.71678  0.75017  0.31289  1.0000
  C   C35       1.0  0.73215  0.75746  0.39304  1.0000
  C   C36       1.0  0.73948  0.73104  0.43255  1.0000
  H   H7        1.0  0.76017  0.70348  0.54204  1.0000
  O   O7        1.0  0.77530  0.65834  0.62321  1.0000
  O   O8        1.0  0.76001  0.59428  0.54599  1.0000
  H   H8        1.0  0.73201  0.58547  0.39981  1.0000
  H   H9        1.0  0.68714  0.66883  0.16134  1.0000
  O   O9        1.0  0.67075  0.60873  0.07820  1.0000
  O   O10       1.0  0.68467  0.55853  0.15327  1.0000
  H   H10       1.0  0.71279  0.57635  0.29962  1.0000
  H   H11       1.0  0.69720  0.71098  0.21214  1.0000
  O   O11       1.0  0.71018  0.77395  0.27734  1.0000
  O   O12       1.0  0.73939  0.78781  0.42962  1.0000
  H   H12       1.0  0.75101  0.73651  0.49266  1.0000
  C   C37       1.0  0.36848  0.97527  0.43100  1.0000
  C   C38       1.0  0.40221  0.00126  0.39043  1.0000
  C   C39       1.0  0.40965  0.99337  0.31033  1.0000
  C   C40       1.0  0.38335  0.95948  0.27081  1.0000
  C   C41       1.0  0.34961  0.93349  0.31138  1.0000
  C   C42       1.0  0.34218  0.94138  0.39148  1.0000
  C   C43       1.0  0.39078  0.95159  0.19071  1.0000
  C   C44       1.0  0.42451  0.97759  0.15014  1.0000
  C   C45       1.0  0.45081  0.01147  0.18966  1.0000
  C   C46       1.0  0.44338  0.01936  0.26976  1.0000
  C   C47       1.0  0.36105  0.98316  0.51110  1.0000
  C   C48       1.0  0.38735  0.01704  0.55062  1.0000
  C   C49       1.0  0.42108  0.04303  0.51005  1.0000
  C   C50       1.0  0.42851  0.03514  0.42995  1.0000
  C   C51       1.0  0.30845  0.91539  0.43205  1.0000
  C   C52       1.0  0.28215  0.88151  0.39253  1.0000
  C   C53       1.0  0.28958  0.87362  0.31243  1.0000
  C   C54       1.0  0.32331  0.89961  0.27186  1.0000
  H   H13       1.0  0.37105  0.92618  0.16107  1.0000
  O   O13       1.0  0.43120  0.97048  0.07805  1.0000
  O   O14       1.0  0.48117  0.03486  0.15315  1.0000
  H   H14       1.0  0.46310  0.04477  0.29940  1.0000
  H   H15       1.0  0.33575  0.96366  0.54152  1.0000
  O   O15       1.0  0.38066  0.02414  0.62270  1.0000
  O   O16       1.0  0.44475  0.07352  0.54562  1.0000
  H   H16       1.0  0.45381  0.05463  0.39952  1.0000
  H   H17       1.0  0.30288  0.92131  0.49212  1.0000
  O   O17       1.0  0.25179  0.85812  0.42904  1.0000
  O   O18       1.0  0.26591  0.84313  0.27686  1.0000
  H   H18       1.0  0.32889  0.89369  0.21179  1.0000
  C   C55       1.0  0.36920  0.29949  0.43780  1.0000
  C   C56       1.0  0.40325  0.30683  0.39839  1.0000
  C   C57       1.0  0.41120  0.32204  0.31849  1.0000
  C   C58       1.0  0.38509  0.32991  0.27800  1.0000
  C   C59       1.0  0.35104  0.32257  0.31741  1.0000
  C   C60       1.0  0.34309  0.30736  0.39731  1.0000
  C   C61       1.0  0.39304  0.34513  0.19810  1.0000
  C   C62       1.0  0.42710  0.35246  0.15869  1.0000
  C   C63       1.0  0.45321  0.34459  0.19918  1.0000
  C   C64       1.0  0.44526  0.32938  0.27908  1.0000
  C   C65       1.0  0.36125  0.28428  0.51770  1.0000
  C   C66       1.0  0.38735  0.27640  0.55818  1.0000
  C   C67       1.0  0.42141  0.28374  0.51877  1.0000
  C   C68       1.0  0.42936  0.29895  0.43887  1.0000
  C   C69       1.0  0.30903  0.30002  0.43672  1.0000
  C   C70       1.0  0.28293  0.30790  0.39624  1.0000
  C   C71       1.0  0.29088  0.32311  0.31634  1.0000
  C   C72       1.0  0.32493  0.33045  0.27693  1.0000
  H   H19       1.0  0.37346  0.35103  0.16774  1.0000
  O   O19       1.0  0.43425  0.36616  0.08678  1.0000
  O   O20       1.0  0.48386  0.35120  0.16371  1.0000
  H   H20       1.0  0.46484  0.32347  0.30944  1.0000
  H   H21       1.0  0.33570  0.27877  0.54726  1.0000
  O   O21       1.0  0.38020  0.26271  0.63009  1.0000
  O   O22       1.0  0.44490  0.27666  0.55521  1.0000
  H   H22       1.0  0.45490  0.30446  0.40932  1.0000
  H   H23       1.0  0.30307  0.28861  0.49665  1.0000
  O   O23       1.0  0.25228  0.30129  0.43171  1.0000
  O   O24       1.0  0.26738  0.33020  0.27990  1.0000
  H   H24       1.0  0.33089  0.34186  0.21700  1.0000
  C   C73       1.0  0.73414  0.00010  0.39849  1.0000
  C   C74       1.0  0.74147  0.97454  0.43799  1.0000
  C   C75       1.0  0.73342  0.94083  0.39736  1.0000
  C   C76       1.0  0.71805  0.93353  0.31721  1.0000
  C   C77       1.0  0.71072  0.95995  0.27770  1.0000
  C   C78       1.0  0.71876  0.99367  0.31834  1.0000
  C   C79       1.0  0.71000  0.89981  0.27657  1.0000
  C   C80       1.0  0.71733  0.87339  0.31608  1.0000
  C   C81       1.0  0.73271  0.88069  0.39623  1.0000
  C   C82       1.0  0.74076  0.91441  0.43687  1.0000
  C   C83       1.0  0.74219  0.03468  0.43912  1.0000
  C   C84       1.0  0.75756  0.04198  0.51927  1.0000
  C   C85       1.0  0.76489  0.01556  0.55878  1.0000
  C   C86       1.0  0.75685  0.98184  0.51814  1.0000
  C   C87       1.0  0.71143  0.02009  0.27883  1.0000
  C   C88       1.0  0.69606  0.01279  0.19869  1.0000
  C   C89       1.0  0.68801  0.97907  0.15805  1.0000
  C   C90       1.0  0.69534  0.95265  0.19756  1.0000
  H   H25       1.0  0.69847  0.89434  0.21647  1.0000
  O   O25       1.0  0.71009  0.84305  0.27951  1.0000
  O   O26       1.0  0.73931  0.85691  0.43179  1.0000
  H   H26       1.0  0.75229  0.91988  0.49698  1.0000
  H   H27       1.0  0.73669  0.05450  0.40949  1.0000
  O   O27       1.0  0.76480  0.07232  0.55584  1.0000
  O   O28       1.0  0.77873  0.02213  0.63091  1.0000
  H   H28       1.0  0.76235  0.96203  0.54777  1.0000
  H   H29       1.0  0.71747  0.04537  0.30931  1.0000
  O   O29       1.0  0.68946  0.03657  0.16313  1.0000
  O   O30       1.0  0.67417  0.97250  0.08592  1.0000
  H   H30       1.0  0.68931  0.92736  0.16708  1.0000
  C   C91       1.0  0.04727  0.62963  0.31880  1.0000
  C   C92       1.0  0.08100  0.65562  0.27823  1.0000
  C   C93       1.0  0.10730  0.68950  0.31775  1.0000
  C   C94       1.0  0.09987  0.69739  0.39785  1.0000
  C   C95       1.0  0.06614  0.67140  0.43842  1.0000
  C   C96       1.0  0.03984  0.63752  0.39890  1.0000
  C   C97       1.0  0.12617  0.73127  0.43737  1.0000
  C   C98       1.0  0.15990  0.75726  0.39680  1.0000
  C   C99       1.0  0.16733  0.74937  0.31670  1.0000
  C   C100      1.0  0.14103  0.71549  0.27718  1.0000
  C   C101      1.0  0.02097  0.59574  0.27928  1.0000
  C   C102      1.0  0.02840  0.58785  0.19918  1.0000
  C   C103      1.0  0.06213  0.61384  0.15861  1.0000
  C   C104      1.0  0.08843  0.64773  0.19814  1.0000
  C   C105      1.0  0.00611  0.61153  0.43947  1.0000
  C   C106      1.0  0.99867  0.61942  0.51957  1.0000
  C   C107      1.0  0.02497  0.65330  0.55909  1.0000
  C   C108      1.0  0.05871  0.67929  0.51852  1.0000
  H   H31       1.0  0.12060  0.73719  0.49744  1.0000
  O   O31       1.0  0.18357  0.78776  0.43237  1.0000
  O   O32       1.0  0.19769  0.77276  0.28019  1.0000
  H   H32       1.0  0.14661  0.70957  0.21711  1.0000
  H   H33       1.0  0.99567  0.57625  0.30971  1.0000
  O   O33       1.0  0.00473  0.55736  0.16361  1.0000
  O   O34       1.0  0.06882  0.60674  0.08653  1.0000
  H   H34       1.0  0.11373  0.66722  0.16771  1.0000
  H   H35       1.0  0.98638  0.58611  0.40983  1.0000
  O   O35       1.0  0.96831  0.59602  0.55608  1.0000
  O   O36       1.0  0.01828  0.66040  0.63118  1.0000
  H   H36       1.0  0.07843  0.70470  0.54816  1.0000
  Fe  Fe7       1.0  0.78042  0.61551  0.65759  1.0000
  Fe  Fe8       1.0  0.42412  0.07173  0.65836  1.0000
  Fe  Fe9       1.0  0.96684  0.25980  0.65712  1.0000
  Fe  Fe10      1.0  0.96838  0.61954  0.66437  1.0000
  Fe  Fe11      1.0  0.42175  0.25453  0.66425  1.0000
  Fe  Fe12      1.0  0.78683  0.07131  0.66556  1.0000
  C   C109      1.0  0.59330  0.05105  0.02480  1.0000
  C   C110      1.0  0.55345  0.03113  0.03614  1.0000
  C   C111      1.0  0.53506  0.99313  0.06138  1.0000
  C   C112      1.0  0.55653  0.97504  0.07527  1.0000
  C   C113      1.0  0.59639  0.99496  0.06394  1.0000
  C   C114      1.0  0.61477  0.03297  0.03870  1.0000
  H   H37       1.0  0.60709  0.07956  0.00588  1.0000
  O   O37       1.0  0.53412  0.04741  0.02363  1.0000
  O   O38       1.0  0.49919  0.97520  0.07158  1.0000
  H   H38       1.0  0.54274  0.94654  0.09420  1.0000
  O   O39       1.0  0.61571  0.97869  0.07644  1.0000
  O   O40       1.0  0.65065  0.05090  0.02849  1.0000
  C   C115      1.0  0.06525  0.48724  0.07563  1.0000
  C   C116      1.0  0.04662  0.44796  0.06162  1.0000
  C   C117      1.0  0.00819  0.42861  0.03578  1.0000
  C   C118      1.0  0.98840  0.44854  0.02395  1.0000
  C   C119      1.0  0.00703  0.48782  0.03796  1.0000
  C   C120      1.0  0.04546  0.50716  0.06380  1.0000
  H   H39       1.0  0.09407  0.50174  0.09500  1.0000
  O   O41       1.0  0.06443  0.43002  0.07226  1.0000
  O   O42       1.0  0.99142  0.39327  0.02317  1.0000
  H   H40       1.0  0.95958  0.43403  0.00457  1.0000
  O   O43       1.0  0.98922  0.50576  0.02732  1.0000
  O   O44       1.0  0.06222  0.54251  0.07641  1.0000
  C   C121      1.0  0.59351  0.44822  0.02403  1.0000
  C   C122      1.0  0.55402  0.42601  0.03859  1.0000
  C   C123      1.0  0.53299  0.44326  0.06427  1.0000
  C   C124      1.0  0.55145  0.48272  0.07539  1.0000
  C   C125      1.0  0.59095  0.50492  0.06083  1.0000
  C   C126      1.0  0.61198  0.48767  0.03515  1.0000
  H   H41       1.0  0.60929  0.43528  0.00477  1.0000
  O   O45       1.0  0.53740  0.39050  0.02858  1.0000
  O   O46       1.0  0.49744  0.42328  0.07738  1.0000
  H   H42       1.0  0.53568  0.49565  0.09466  1.0000
  O   O47       1.0  0.60756  0.54043  0.07084  1.0000
  O   O48       1.0  0.64752  0.50765  0.02204  1.0000
  Cu  Cu1       1.0  0.22474  0.31545  0.35462  1.0000
  Cu  Cu2       1.0  0.72474  0.81543  0.35456  1.0000
  Cu  Cu3       1.0  0.22474  0.81544  0.35461  1.0000
  C   C127      1.0  0.89293  0.65582  0.63397  1.0000
  C   C128      1.0  0.85307  0.63588  0.64526  1.0000
  C   C129      1.0  0.83469  0.59787  0.67043  1.0000
  C   C130      1.0  0.85617  0.57979  0.68432  1.0000
  C   C131      1.0  0.89603  0.59973  0.67303  1.0000
  C   C132      1.0  0.91441  0.63775  0.64785  1.0000
  H   H43       1.0  0.90671  0.68433  0.61509  1.0000
  O   O49       1.0  0.83373  0.65215  0.63276  1.0000
  O   O50       1.0  0.79882  0.57992  0.68059  1.0000
  H   H44       1.0  0.84239  0.55128  0.70320  1.0000
  O   O51       1.0  0.91536  0.58346  0.68552  1.0000
  O   O52       1.0  0.95028  0.65569  0.63769  1.0000
  C   C133      1.0  0.46107  0.18234  0.68524  1.0000
  C   C134      1.0  0.44244  0.14306  0.67125  1.0000
  C   C135      1.0  0.40401  0.12371  0.64546  1.0000
  C   C136      1.0  0.38420  0.14363  0.63367  1.0000
  C   C137      1.0  0.40283  0.18290  0.64766  1.0000
  C   C138      1.0  0.44126  0.20226  0.67344  1.0000
  H   H45       1.0  0.48989  0.19686  0.70457  1.0000
  O   O53       1.0  0.46027  0.12514  0.68186  1.0000
  O   O54       1.0  0.38724  0.08836  0.63287  1.0000
  H   H46       1.0  0.35538  0.12911  0.61433  1.0000
  O   O55       1.0  0.38500  0.20083  0.63705  1.0000
  O   O56       1.0  0.45803  0.23761  0.68603  1.0000
  C   C139      1.0  0.89801  0.14816  0.63370  1.0000
  C   C140      1.0  0.85852  0.12595  0.64829  1.0000
  C   C141      1.0  0.83750  0.14319  0.67408  1.0000
  C   C142      1.0  0.85597  0.18264  0.68527  1.0000
  C   C143      1.0  0.89546  0.20485  0.67068  1.0000
  C   C144      1.0  0.91648  0.18761  0.64489  1.0000
  H   H47       1.0  0.91378  0.13523  0.61436  1.0000
  O   O57       1.0  0.84190  0.09044  0.63822  1.0000
  O   O58       1.0  0.80196  0.12320  0.68721  1.0000
  H   H48       1.0  0.84020  0.19557  0.70461  1.0000
  O   O59       1.0  0.91208  0.24035  0.68075  1.0000
  O   O60       1.0  0.95202  0.20760  0.63176  1.0000
  C   C145      1.0  0.01336  0.35177  0.80386  1.0000
  C   C146      1.0  0.99533  0.31633  0.76412  1.0000
  C   C147      1.0  0.97933  0.28294  0.81087  1.0000
  C   C148      1.0  0.98138  0.28498  0.89737  1.0000
  C   C149      1.0  0.99990  0.32042  0.93711  1.0000
  C   C150      1.0  0.01541  0.35381  0.89036  1.0000
  H   H49       1.0  0.02536  0.37681  0.76879  1.0000
  O   O61       1.0  0.99348  0.31449  0.68627  1.0000
  O   O62       1.0  0.96310  0.25105  0.77510  1.0000
  H   H50       1.0  0.96939  0.25994  0.93244  1.0000
  O   O63       1.0  0.00126  0.32226  0.01496  1.0000
  O   O64       1.0  0.03165  0.38571  0.92613  1.0000
  C   C151      1.0  0.75281  0.61541  0.89420  1.0000
  C   C152      1.0  0.71793  0.59275  0.93478  1.0000
  C   C153      1.0  0.68628  0.56496  0.89065  1.0000
  C   C154      1.0  0.68952  0.55984  0.80593  1.0000
  C   C155      1.0  0.72440  0.58250  0.76534  1.0000
  C   C156      1.0  0.75604  0.61029  0.80948  1.0000
  H   H51       1.0  0.77654  0.63625  0.92729  1.0000
  O   O65       1.0  0.71501  0.59736  0.01103  1.0000
  O   O66       1.0  0.65489  0.54456  0.92718  1.0000
  H   H52       1.0  0.66578  0.53900  0.77283  1.0000
  O   O67       1.0  0.72731  0.57789  0.68910  1.0000
  O   O68       1.0  0.78743  0.63068  0.77295  1.0000
  C   C157      1.0  0.44837  0.06847  0.89646  1.0000
  C   C158      1.0  0.44142  0.06478  0.81108  1.0000
  C   C159      1.0  0.44559  0.03754  0.76592  1.0000
  C   C160      1.0  0.45669  0.01399  0.80612  1.0000
  C   C161      1.0  0.46363  0.01768  0.89150  1.0000
  C   C162      1.0  0.45947  0.04492  0.93666  1.0000
  H   H53       1.0  0.44524  0.08890  0.93033  1.0000
  O   O69       1.0  0.43143  0.08598  0.77490  1.0000
  O   O70       1.0  0.43934  0.03422  0.68908  1.0000
  H   H54       1.0  0.45981  0.99356  0.77225  1.0000
  O   O71       1.0  0.47363  0.99649  0.92768  1.0000
  O   O72       1.0  0.46572  0.04824  0.01350  1.0000
  C   C163      1.0  0.76007  0.04789  0.90462  1.0000
  C   C164      1.0  0.72512  0.03677  0.94449  1.0000
  C   C165      1.0  0.69335  0.03210  0.89894  1.0000
  C   C166      1.0  0.69652  0.03854  0.81352  1.0000
  C   C167      1.0  0.73147  0.04966  0.77364  1.0000
  C   C168      1.0  0.76325  0.05433  0.81919  1.0000
  H   H55       1.0  0.78391  0.05140  0.93878  1.0000
  O   O73       1.0  0.72227  0.03098  0.02137  1.0000
  O   O74       1.0  0.66189  0.02209  0.93483  1.0000
  H   H56       1.0  0.67269  0.03503  0.77936  1.0000
  O   O75       1.0  0.73433  0.05545  0.69676  1.0000
  O   O76       1.0  0.79470  0.06434  0.78331  1.0000
  C   C169      1.0  0.02492  0.58584  0.81404  1.0000
  C   C170      1.0  0.00191  0.59768  0.77320  1.0000
  C   C171      1.0  0.97395  0.60150  0.81710  1.0000
  C   C172      1.0  0.96899  0.59347  0.90184  1.0000
  C   C173      1.0  0.99200  0.58163  0.94268  1.0000
  C   C174      1.0  0.01996  0.57781  0.89878  1.0000
  H   H57       1.0  0.04589  0.58297  0.78111  1.0000
  O   O77       1.0  0.00637  0.60490  0.69693  1.0000
  O   O78       1.0  0.95325  0.61215  0.78035  1.0000
  H   H58       1.0  0.94802  0.59634  0.93477  1.0000
  O   O79       1.0  0.98754  0.57441  0.01894  1.0000
  O   O80       1.0  0.04066  0.56716  0.93553  1.0000
  C   C175      1.0  0.43543  0.27910  0.90544  1.0000
  C   C176      1.0  0.43371  0.27705  0.81892  1.0000
  C   C177      1.0  0.45036  0.31044  0.77212  1.0000
  C   C178      1.0  0.46874  0.34588  0.81184  1.0000
  C   C179      1.0  0.47046  0.34792  0.89836  1.0000
  C   C180      1.0  0.45381  0.31453  0.94516  1.0000
  H   H59       1.0  0.42294  0.25405  0.94054  1.0000
  O   O81       1.0  0.41717  0.24516  0.78317  1.0000
  O   O82       1.0  0.44881  0.30860  0.69426  1.0000
  H   H60       1.0  0.48122  0.37092  0.77675  1.0000
  O   O83       1.0  0.48699  0.37982  0.93411  1.0000
  O   O84       1.0  0.45536  0.31637  0.02303  1.0000
