data_image0
_chemical_formula_structural       C26H7O2H2O2HC4HO2HC26H7O2H2O2HC4HO2HC26H7O2H2O2HC4HO2HC26H7O2H2O2HC4HO2HC26H7O2H2O2HC4HO2HC26H7O2H2O2HC4HO2HC26H7O2H2O2HC4HO2HC26H7O2H2O2HC4HO2HCu6Zn6
_chemical_formula_sum              "C240 H96 O48 Cu6 Zn6"
_cell_length_a       81.0663
_cell_length_b       81.0665
_cell_length_c       32.4495
_cell_angle_alpha    90
_cell_angle_beta     90
_cell_angle_gamma    119.858

_space_group_name_H-M_alt    "P 1"
_space_group_IT_number       1

loop_
  _space_group_symop_operation_xyz
  'x, y, z'

loop_
  _atom_site_type_symbol
  _atom_site_label
  _atom_site_symmetry_multiplicity
  _atom_site_fract_x
  _atom_site_fract_y
  _atom_site_fract_z
  _atom_site_occupancy
  C   C1        1.0  0.66687  0.35207  0.25000  1.0000
  C   C2        1.0  0.64793  0.33312  0.25000  1.0000
  C   C3        1.0  0.64796  0.31414  0.25000  1.0000
  C   C4        1.0  0.66693  0.31411  0.25000  1.0000
  C   C5        1.0  0.68589  0.33307  0.25000  1.0000
  C   C6        1.0  0.68586  0.35205  0.25000  1.0000
  C   C7        1.0  0.66696  0.29513  0.25000  1.0000
  C   C8        1.0  0.64802  0.27618  0.25000  1.0000
  C   C9        1.0  0.62903  0.27620  0.25000  1.0000
  C   C10       1.0  0.62900  0.29518  0.25000  1.0000
  C   C11       1.0  0.66684  0.37106  0.25000  1.0000
  C   C12       1.0  0.64787  0.37108  0.25000  1.0000
  C   C13       1.0  0.62891  0.35212  0.25000  1.0000
  C   C14       1.0  0.62894  0.33314  0.25000  1.0000
  C   C15       1.0  0.70482  0.37101  0.25000  1.0000
  C   C16       1.0  0.72380  0.37098  0.25000  1.0000
  C   C17       1.0  0.72383  0.35200  0.25000  1.0000
  C   C18       1.0  0.70488  0.33305  0.25000  1.0000
  C   C19       1.0  0.74281  0.35198  0.25000  1.0000
  C   C20       1.0  0.76177  0.37094  0.25000  1.0000
  C   C21       1.0  0.76174  0.38992  0.25000  1.0000
  C   C22       1.0  0.74275  0.38994  0.25000  1.0000
  C   C23       1.0  0.61007  0.25724  0.25000  1.0000
  C   C24       1.0  0.61010  0.23826  0.25000  1.0000
  C   C25       1.0  0.62909  0.23823  0.25000  1.0000
  C   C26       1.0  0.64805  0.25719  0.25000  1.0000
  H   H1        1.0  0.68103  0.29512  0.25000  1.0000
  H   H2        1.0  0.61495  0.29520  0.25000  1.0000
  H   H3        1.0  0.68088  0.38509  0.25000  1.0000
  H   H4        1.0  0.61491  0.31911  0.25000  1.0000
  H   H5        1.0  0.70480  0.38506  0.25000  1.0000
  H   H6        1.0  0.70490  0.31900  0.25000  1.0000
  H   H7        1.0  0.74284  0.33793  0.25000  1.0000
  O   O1        1.0  0.78027  0.37092  0.25000  1.0000
  O   O2        1.0  0.78021  0.40839  0.25000  1.0000
  H   H8        1.0  0.74273  0.40400  0.25000  1.0000
  H   H9        1.0  0.59602  0.25726  0.25000  1.0000
  O   O3        1.0  0.59164  0.21979  0.25000  1.0000
  O   O4        1.0  0.62912  0.21975  0.25000  1.0000
  H   H10       1.0  0.66210  0.25718  0.25000  1.0000
  C   C27       1.0  0.60992  0.35215  0.25000  1.0000
  C   C28       1.0  0.60989  0.37113  0.25000  1.0000
  C   C29       1.0  0.62885  0.39009  0.25000  1.0000
  C   C30       1.0  0.64784  0.39007  0.25000  1.0000
  H   H11       1.0  0.59589  0.33811  0.25000  1.0000
  O   O5        1.0  0.59140  0.37115  0.25000  1.0000
  O   O6        1.0  0.62882  0.40858  0.25000  1.0000
  H   H12       1.0  0.66186  0.40410  0.25000  1.0000
  C   C31       1.0  0.33313  0.64792  0.75000  1.0000
  C   C32       1.0  0.35208  0.66687  0.75000  1.0000
  C   C33       1.0  0.35205  0.68586  0.75000  1.0000
  C   C34       1.0  0.33307  0.68589  0.75000  1.0000
  C   C35       1.0  0.31411  0.66693  0.75000  1.0000
  C   C36       1.0  0.31414  0.64795  0.75000  1.0000
  C   C37       1.0  0.33305  0.70487  0.75000  1.0000
  C   C38       1.0  0.35199  0.72382  0.75000  1.0000
  C   C39       1.0  0.37098  0.72380  0.75000  1.0000
  C   C40       1.0  0.37101  0.70482  0.75000  1.0000
  C   C41       1.0  0.33316  0.62894  0.75000  1.0000
  C   C42       1.0  0.35213  0.62891  0.75000  1.0000
  C   C43       1.0  0.37109  0.64787  0.75000  1.0000
  C   C44       1.0  0.37107  0.66685  0.75000  1.0000
  C   C45       1.0  0.29518  0.62899  0.75000  1.0000
  C   C46       1.0  0.27621  0.62902  0.75000  1.0000
  C   C47       1.0  0.27618  0.64800  0.75000  1.0000
  C   C48       1.0  0.29513  0.66695  0.75000  1.0000
  C   C49       1.0  0.25719  0.64802  0.75000  1.0000
  C   C50       1.0  0.23823  0.62906  0.75000  1.0000
  C   C51       1.0  0.23826  0.61008  0.75000  1.0000
  C   C52       1.0  0.25725  0.61006  0.75000  1.0000
  C   C53       1.0  0.38994  0.74276  0.75000  1.0000
  C   C54       1.0  0.38991  0.76174  0.75000  1.0000
  C   C55       1.0  0.37092  0.76176  0.75000  1.0000
  C   C56       1.0  0.35196  0.74280  0.75000  1.0000
  H   H13       1.0  0.31898  0.70488  0.75000  1.0000
  H   H14       1.0  0.38506  0.70480  0.75000  1.0000
  H   H15       1.0  0.31912  0.61490  0.75000  1.0000
  H   H16       1.0  0.38509  0.68088  0.75000  1.0000
  H   H17       1.0  0.29520  0.61493  0.75000  1.0000
  H   H18       1.0  0.29511  0.68100  0.75000  1.0000
  H   H19       1.0  0.25717  0.66208  0.75000  1.0000
  O   O7        1.0  0.21974  0.62909  0.75000  1.0000
  O   O8        1.0  0.21980  0.59162  0.75000  1.0000
  H   H20       1.0  0.25727  0.59601  0.75000  1.0000
  H   H21       1.0  0.40399  0.74274  0.75000  1.0000
  O   O9        1.0  0.40837  0.78020  0.75000  1.0000
  O   O10       1.0  0.37090  0.78025  0.75000  1.0000
  H   H22       1.0  0.33791  0.74283  0.75000  1.0000
  C   C57       1.0  0.39008  0.64784  0.75000  1.0000
  C   C58       1.0  0.39011  0.62886  0.75000  1.0000
  C   C59       1.0  0.37115  0.60990  0.75000  1.0000
  C   C60       1.0  0.35216  0.60993  0.75000  1.0000
  H   H23       1.0  0.40411  0.66188  0.75000  1.0000
  O   O11       1.0  0.40860  0.62884  0.75000  1.0000
  O   O12       1.0  0.37118  0.59141  0.75000  1.0000
  H   H24       1.0  0.33813  0.59590  0.75000  1.0000
  C   C61       1.0  0.52445  0.04764  0.27374  1.0000
  C   C62       1.0  0.53398  0.06661  0.29746  1.0000
  C   C63       1.0  0.54351  0.08558  0.27373  1.0000
  C   C64       1.0  0.54352  0.08558  0.22629  1.0000
  C   C65       1.0  0.53398  0.06661  0.20255  1.0000
  C   C66       1.0  0.52445  0.04764  0.22628  1.0000
  C   C67       1.0  0.55305  0.10455  0.20256  1.0000
  C   C68       1.0  0.56258  0.12352  0.22627  1.0000
  C   C69       1.0  0.56258  0.12352  0.27373  1.0000
  C   C70       1.0  0.55305  0.10455  0.29746  1.0000
  C   C71       1.0  0.51492  0.02867  0.29747  1.0000
  C   C72       1.0  0.51491  0.02867  0.34491  1.0000
  C   C73       1.0  0.52445  0.04764  0.36865  1.0000
  C   C74       1.0  0.53398  0.06661  0.34492  1.0000
  C   C75       1.0  0.51492  0.02867  0.20254  1.0000
  C   C76       1.0  0.51492  0.02867  0.15510  1.0000
  C   C77       1.0  0.52445  0.04764  0.13137  1.0000
  C   C78       1.0  0.53398  0.06661  0.15508  1.0000
  C   C79       1.0  0.52445  0.04764  0.08390  1.0000
  C   C80       1.0  0.51492  0.02867  0.06017  1.0000
  C   C81       1.0  0.50538  0.00970  0.08389  1.0000
  C   C82       1.0  0.50538  0.00970  0.13136  1.0000
  C   C83       1.0  0.57212  0.14249  0.29747  1.0000
  C   C84       1.0  0.58165  0.16146  0.27374  1.0000
  C   C85       1.0  0.58165  0.16146  0.22628  1.0000
  C   C86       1.0  0.57211  0.14248  0.20254  1.0000
  H   H25       1.0  0.55305  0.10455  0.16741  1.0000
  H   H26       1.0  0.55305  0.10455  0.33259  1.0000
  H   H27       1.0  0.50786  0.01463  0.27989  1.0000
  H   H28       1.0  0.54104  0.08065  0.36248  1.0000
  H   H29       1.0  0.50786  0.01463  0.22011  1.0000
  H   H30       1.0  0.54104  0.08065  0.13752  1.0000
  H   H31       1.0  0.53151  0.06168  0.06634  1.0000
  O   O13       1.0  0.51492  0.02867  0.01394  1.0000
  O   O14       1.0  0.49610  0.99122  0.06078  1.0000
  H   H32       1.0  0.49833  0.99566  0.14893  1.0000
  H   H33       1.0  0.57212  0.14249  0.33260  1.0000
  O   O15       1.0  0.59093  0.17994  0.29686  1.0000
  O   O16       1.0  0.59093  0.17993  0.20316  1.0000
  H   H34       1.0  0.57211  0.14249  0.16741  1.0000
  C   C87       1.0  0.52445  0.04764  0.41612  1.0000
  C   C88       1.0  0.51492  0.02867  0.43985  1.0000
  C   C89       1.0  0.50538  0.00970  0.41611  1.0000
  C   C90       1.0  0.50538  0.00970  0.36864  1.0000
  H   H35       1.0  0.53151  0.06168  0.43368  1.0000
  O   O17       1.0  0.51492  0.02867  0.48607  1.0000
  O   O18       1.0  0.49610  0.99122  0.43922  1.0000
  H   H36       1.0  0.49833  0.99566  0.35108  1.0000
  C   C91       1.0  0.45713  0.54291  0.72628  1.0000
  C   C92       1.0  0.45713  0.54290  0.77372  1.0000
  C   C93       1.0  0.46663  0.53340  0.79745  1.0000
  C   C94       1.0  0.47614  0.52389  0.77374  1.0000
  C   C95       1.0  0.47614  0.52389  0.72627  1.0000
  C   C96       1.0  0.46663  0.53340  0.70254  1.0000
  C   C97       1.0  0.48564  0.51439  0.79747  1.0000
  C   C98       1.0  0.48564  0.51438  0.84491  1.0000
  C   C99       1.0  0.47614  0.52389  0.86864  1.0000
  C   C100      1.0  0.46663  0.53340  0.84492  1.0000
  C   C101      1.0  0.44762  0.55241  0.70255  1.0000
  C   C102      1.0  0.43812  0.56192  0.72626  1.0000
  C   C103      1.0  0.43812  0.56192  0.77373  1.0000
  C   C104      1.0  0.44763  0.55241  0.79746  1.0000
  C   C105      1.0  0.46663  0.53340  0.65507  1.0000
  C   C106      1.0  0.47614  0.52389  0.63136  1.0000
  C   C107      1.0  0.48564  0.51439  0.65509  1.0000
  C   C108      1.0  0.48564  0.51438  0.70253  1.0000
  C   C109      1.0  0.49514  0.50488  0.63135  1.0000
  C   C110      1.0  0.49514  0.50488  0.58389  1.0000
  C   C111      1.0  0.48564  0.51438  0.56016  1.0000
  C   C112      1.0  0.47614  0.52389  0.58390  1.0000
  C   C113      1.0  0.47614  0.52389  0.91611  1.0000
  C   C114      1.0  0.48564  0.51439  0.93984  1.0000
  C   C115      1.0  0.49514  0.50488  0.91610  1.0000
  C   C116      1.0  0.49514  0.50488  0.86864  1.0000
  H   H37       1.0  0.49268  0.50735  0.77988  1.0000
  H   H38       1.0  0.45960  0.54044  0.86247  1.0000
  H   H39       1.0  0.44763  0.55241  0.66740  1.0000
  H   H40       1.0  0.44763  0.55241  0.83258  1.0000
  H   H41       1.0  0.45960  0.54044  0.63751  1.0000
  H   H42       1.0  0.49268  0.50735  0.72010  1.0000
  H   H43       1.0  0.50218  0.49784  0.64892  1.0000
  O   O19       1.0  0.50440  0.49562  0.56078  1.0000
  O   O20       1.0  0.48564  0.51438  0.51393  1.0000
  H   H44       1.0  0.46910  0.53093  0.56633  1.0000
  H   H45       1.0  0.46910  0.53093  0.93367  1.0000
  O   O21       1.0  0.48564  0.51439  0.98606  1.0000
  O   O22       1.0  0.50440  0.49562  0.93922  1.0000
  H   H46       1.0  0.50218  0.49784  0.85108  1.0000
  C   C117      1.0  0.42862  0.57143  0.79747  1.0000
  C   C118      1.0  0.41911  0.58093  0.77374  1.0000
  C   C119      1.0  0.41912  0.58093  0.72627  1.0000
  C   C120      1.0  0.42862  0.57142  0.70253  1.0000
  H   H47       1.0  0.42862  0.57143  0.83259  1.0000
  O   O23       1.0  0.40986  0.59019  0.79685  1.0000
  O   O24       1.0  0.40986  0.59019  0.70316  1.0000
  H   H48       1.0  0.42862  0.57143  0.66741  1.0000
  C   C121      1.0  0.91441  0.45655  0.22628  1.0000
  C   C122      1.0  0.91441  0.45655  0.27372  1.0000
  C   C123      1.0  0.93338  0.46608  0.29745  1.0000
  C   C124      1.0  0.95235  0.47561  0.27374  1.0000
  C   C125      1.0  0.95235  0.47561  0.22627  1.0000
  C   C126      1.0  0.93338  0.46608  0.20254  1.0000
  C   C127      1.0  0.97132  0.48514  0.29747  1.0000
  C   C128      1.0  0.97132  0.48514  0.34491  1.0000
  C   C129      1.0  0.95235  0.47561  0.36864  1.0000
  C   C130      1.0  0.93338  0.46608  0.34492  1.0000
  C   C131      1.0  0.89544  0.44701  0.20255  1.0000
  C   C132      1.0  0.87648  0.43748  0.22626  1.0000
  C   C133      1.0  0.87647  0.43748  0.27373  1.0000
  C   C134      1.0  0.89544  0.44701  0.29746  1.0000
  C   C135      1.0  0.93338  0.46608  0.15507  1.0000
  C   C136      1.0  0.95235  0.47561  0.13136  1.0000
  C   C137      1.0  0.97132  0.48514  0.15509  1.0000
  C   C138      1.0  0.97132  0.48514  0.20253  1.0000
  C   C139      1.0  0.99029  0.49467  0.13135  1.0000
  C   C140      1.0  0.99029  0.49468  0.08389  1.0000
  C   C141      1.0  0.97132  0.48514  0.06016  1.0000
  C   C142      1.0  0.95235  0.47561  0.08390  1.0000
  C   C143      1.0  0.95235  0.47561  0.41611  1.0000
  C   C144      1.0  0.97132  0.48514  0.43984  1.0000
  C   C145      1.0  0.99029  0.49467  0.41610  1.0000
  C   C146      1.0  0.99029  0.49468  0.36864  1.0000
  H   H49       1.0  0.98537  0.49220  0.27988  1.0000
  H   H50       1.0  0.91934  0.45902  0.36247  1.0000
  H   H51       1.0  0.89545  0.44702  0.16740  1.0000
  H   H52       1.0  0.89544  0.44702  0.33258  1.0000
  H   H53       1.0  0.91934  0.45902  0.13751  1.0000
  H   H54       1.0  0.98537  0.49220  0.22010  1.0000
  H   H55       1.0  0.00433  0.50173  0.14892  1.0000
  O   O25       1.0  0.00877  0.50396  0.06078  1.0000
  O   O26       1.0  0.97132  0.48514  0.01393  1.0000
  H   H56       1.0  0.93831  0.46855  0.06633  1.0000
  H   H57       1.0  0.93831  0.46855  0.43367  1.0000
  O   O27       1.0  0.97132  0.48514  0.48607  1.0000
  O   O28       1.0  0.00877  0.50396  0.43922  1.0000
  H   H58       1.0  0.00433  0.50173  0.35108  1.0000
  C   C147      1.0  0.85750  0.42795  0.29747  1.0000
  C   C148      1.0  0.83853  0.41842  0.27374  1.0000
  C   C149      1.0  0.83853  0.41842  0.22627  1.0000
  C   C150      1.0  0.85751  0.42795  0.20253  1.0000
  H   H59       1.0  0.85750  0.42795  0.33259  1.0000
  O   O29       1.0  0.82006  0.40913  0.29685  1.0000
  O   O30       1.0  0.82006  0.40914  0.20316  1.0000
  H   H60       1.0  0.85750  0.42795  0.16741  1.0000
  C   C151      1.0  0.45650  0.91441  0.77372  1.0000
  C   C152      1.0  0.45650  0.91442  0.72628  1.0000
  C   C153      1.0  0.46603  0.93339  0.70255  1.0000
  C   C154      1.0  0.47556  0.95235  0.72626  1.0000
  C   C155      1.0  0.47557  0.95235  0.77373  1.0000
  C   C156      1.0  0.46603  0.93338  0.79746  1.0000
  C   C157      1.0  0.48510  0.97132  0.70253  1.0000
  C   C158      1.0  0.48510  0.97132  0.65509  1.0000
  C   C159      1.0  0.47557  0.95235  0.63136  1.0000
  C   C160      1.0  0.46603  0.93338  0.65508  1.0000
  C   C161      1.0  0.44696  0.89544  0.79745  1.0000
  C   C162      1.0  0.43743  0.87648  0.77374  1.0000
  C   C163      1.0  0.43743  0.87648  0.72627  1.0000
  C   C164      1.0  0.44696  0.89544  0.70254  1.0000
  C   C165      1.0  0.46603  0.93339  0.84493  1.0000
  C   C166      1.0  0.47556  0.95235  0.86864  1.0000
  C   C167      1.0  0.48510  0.97132  0.84491  1.0000
  C   C168      1.0  0.48510  0.97132  0.79747  1.0000
  C   C169      1.0  0.49463  0.99029  0.86865  1.0000
  C   C170      1.0  0.49463  0.99029  0.91611  1.0000
  C   C171      1.0  0.48510  0.97132  0.93984  1.0000
  C   C172      1.0  0.47557  0.95235  0.91610  1.0000
  C   C173      1.0  0.47556  0.95235  0.58389  1.0000
  C   C174      1.0  0.48510  0.97132  0.56016  1.0000
  C   C175      1.0  0.49463  0.99029  0.58390  1.0000
  C   C176      1.0  0.49463  0.99029  0.63136  1.0000
  H   H61       1.0  0.49216  0.98537  0.72012  1.0000
  H   H62       1.0  0.45898  0.91934  0.63753  1.0000
  H   H63       1.0  0.44697  0.89545  0.83260  1.0000
  H   H64       1.0  0.44697  0.89545  0.66742  1.0000
  H   H65       1.0  0.45898  0.91934  0.86249  1.0000
  H   H66       1.0  0.49216  0.98537  0.77990  1.0000
  H   H67       1.0  0.50169  0.00433  0.85108  1.0000
  O   O31       1.0  0.50392  0.00877  0.93922  1.0000
  O   O32       1.0  0.48510  0.97132  0.98607  1.0000
  H   H68       1.0  0.46851  0.93831  0.93367  1.0000
  H   H69       1.0  0.46851  0.93831  0.56633  1.0000
  O   O33       1.0  0.48510  0.97132  0.51393  1.0000
  O   O34       1.0  0.50392  0.00877  0.56078  1.0000
  H   H70       1.0  0.50169  0.00433  0.64892  1.0000
  C   C177      1.0  0.42790  0.85750  0.70253  1.0000
  C   C178      1.0  0.41836  0.83853  0.72626  1.0000
  C   C179      1.0  0.41836  0.83854  0.77373  1.0000
  C   C180      1.0  0.42790  0.85751  0.79747  1.0000
  H   H71       1.0  0.42790  0.85751  0.66741  1.0000
  O   O35       1.0  0.40908  0.82006  0.70315  1.0000
  O   O36       1.0  0.40908  0.82006  0.79684  1.0000
  H   H72       1.0  0.42790  0.85751  0.83259  1.0000
  C   C181      1.0  0.52384  0.47609  0.27374  1.0000
  C   C182      1.0  0.53335  0.46659  0.29746  1.0000
  C   C183      1.0  0.54285  0.45708  0.27373  1.0000
  C   C184      1.0  0.54285  0.45708  0.22629  1.0000
  C   C185      1.0  0.53335  0.46659  0.20255  1.0000
  C   C186      1.0  0.52384  0.47609  0.22628  1.0000
  C   C187      1.0  0.55236  0.44757  0.20256  1.0000
  C   C188      1.0  0.56186  0.43807  0.22627  1.0000
  C   C189      1.0  0.56186  0.43807  0.27373  1.0000
  C   C190      1.0  0.55236  0.44757  0.29746  1.0000
  C   C191      1.0  0.51434  0.48560  0.29747  1.0000
  C   C192      1.0  0.51434  0.48560  0.34491  1.0000
  C   C193      1.0  0.52384  0.47609  0.36865  1.0000
  C   C194      1.0  0.53335  0.46659  0.34492  1.0000
  C   C195      1.0  0.51434  0.48560  0.20254  1.0000
  C   C196      1.0  0.51434  0.48560  0.15510  1.0000
  C   C197      1.0  0.52385  0.47609  0.13137  1.0000
  C   C198      1.0  0.53335  0.46659  0.15508  1.0000
  C   C199      1.0  0.52384  0.47609  0.08390  1.0000
  C   C200      1.0  0.51434  0.48560  0.06017  1.0000
  C   C201      1.0  0.50483  0.49510  0.08389  1.0000
  C   C202      1.0  0.50483  0.49510  0.13136  1.0000
  C   C203      1.0  0.57137  0.42856  0.29747  1.0000
  C   C204      1.0  0.58087  0.41906  0.27374  1.0000
  C   C205      1.0  0.58087  0.41906  0.22628  1.0000
  C   C206      1.0  0.57136  0.42856  0.20254  1.0000
  H   H73       1.0  0.55236  0.44758  0.16741  1.0000
  H   H74       1.0  0.55236  0.44757  0.33259  1.0000
  H   H75       1.0  0.50730  0.49264  0.27989  1.0000
  H   H76       1.0  0.54038  0.45955  0.36248  1.0000
  H   H77       1.0  0.50730  0.49264  0.22011  1.0000
  H   H78       1.0  0.54038  0.45955  0.13752  1.0000
  H   H79       1.0  0.53088  0.46905  0.06634  1.0000
  O   O37       1.0  0.51434  0.48560  0.01394  1.0000
  O   O38       1.0  0.49558  0.50436  0.06078  1.0000
  H   H80       1.0  0.49780  0.50214  0.14893  1.0000
  H   H81       1.0  0.57137  0.42856  0.33260  1.0000
  O   O39       1.0  0.59013  0.40980  0.29686  1.0000
  O   O40       1.0  0.59013  0.40980  0.20316  1.0000
  H   H82       1.0  0.57137  0.42856  0.16741  1.0000
  C   C207      1.0  0.52384  0.47609  0.41612  1.0000
  C   C208      1.0  0.51434  0.48560  0.43985  1.0000
  C   C209      1.0  0.50483  0.49510  0.41611  1.0000
  C   C210      1.0  0.50483  0.49510  0.36864  1.0000
  H   H83       1.0  0.53088  0.46905  0.43368  1.0000
  O   O41       1.0  0.51434  0.48560  0.48607  1.0000
  O   O42       1.0  0.49558  0.50436  0.43922  1.0000
  H   H84       1.0  0.49780  0.50214  0.35108  1.0000
  C   C211      1.0  0.04765  0.52441  0.72626  1.0000
  C   C212      1.0  0.06661  0.53394  0.70254  1.0000
  C   C213      1.0  0.08558  0.54347  0.72627  1.0000
  C   C214      1.0  0.08559  0.54347  0.77371  1.0000
  C   C215      1.0  0.06662  0.53394  0.79745  1.0000
  C   C216      1.0  0.04765  0.52441  0.77372  1.0000
  C   C217      1.0  0.10456  0.55300  0.79744  1.0000
  C   C218      1.0  0.12352  0.56253  0.77373  1.0000
  C   C219      1.0  0.12352  0.56253  0.72627  1.0000
  C   C220      1.0  0.10456  0.55300  0.70254  1.0000
  C   C221      1.0  0.02868  0.51488  0.70253  1.0000
  C   C222      1.0  0.02868  0.51488  0.65509  1.0000
  C   C223      1.0  0.04765  0.52441  0.63135  1.0000
  C   C224      1.0  0.06662  0.53394  0.65508  1.0000
  C   C225      1.0  0.02868  0.51488  0.79746  1.0000
  C   C226      1.0  0.02868  0.51488  0.84490  1.0000
  C   C227      1.0  0.04765  0.52441  0.86863  1.0000
  C   C228      1.0  0.06661  0.53394  0.84492  1.0000
  C   C229      1.0  0.04765  0.52441  0.91610  1.0000
  C   C230      1.0  0.02868  0.51488  0.93983  1.0000
  C   C231      1.0  0.00971  0.50535  0.91611  1.0000
  C   C232      1.0  0.00971  0.50535  0.86864  1.0000
  C   C233      1.0  0.14250  0.57206  0.70253  1.0000
  C   C234      1.0  0.16147  0.58160  0.72626  1.0000
  C   C235      1.0  0.16146  0.58159  0.77372  1.0000
  C   C236      1.0  0.14249  0.57206  0.79746  1.0000
  H   H85       1.0  0.10455  0.55300  0.83259  1.0000
  H   H86       1.0  0.10455  0.55300  0.66741  1.0000
  H   H87       1.0  0.01463  0.50782  0.72011  1.0000
  H   H88       1.0  0.08066  0.54100  0.63752  1.0000
  H   H89       1.0  0.01463  0.50782  0.77989  1.0000
  H   H90       1.0  0.08066  0.54100  0.86248  1.0000
  H   H91       1.0  0.06169  0.53147  0.93366  1.0000
  O   O43       1.0  0.02868  0.51488  0.98606  1.0000
  O   O44       1.0  0.99123  0.49606  0.93922  1.0000
  H   H92       1.0  0.99567  0.49829  0.85107  1.0000
  H   H93       1.0  0.14249  0.57206  0.66740  1.0000
  O   O45       1.0  0.17994  0.59088  0.70314  1.0000
  O   O46       1.0  0.17994  0.59088  0.79684  1.0000
  H   H94       1.0  0.14249  0.57206  0.83259  1.0000
  C   C237      1.0  0.04765  0.52441  0.58388  1.0000
  C   C238      1.0  0.02868  0.51488  0.56015  1.0000
  C   C239      1.0  0.00971  0.50535  0.58389  1.0000
  C   C240      1.0  0.00971  0.50535  0.63136  1.0000
  H   H95       1.0  0.06169  0.53147  0.56632  1.0000
  O   O47       1.0  0.02868  0.51488  0.51393  1.0000
  O   O48       1.0  0.99123  0.49607  0.56078  1.0000
  H   H96       1.0  0.99567  0.49829  0.64892  1.0000
  Cu  Cu1       1.0  0.50001  0.99990  0.00010  1.0000
  Cu  Cu2       1.0  0.49999  0.49999  0.50000  1.0000
  Cu  Cu3       1.0  0.00010  0.50001  0.00010  1.0000
  Cu  Cu4       1.0  0.50001  0.99990  0.50000  1.0000
  Cu  Cu5       1.0  0.49999  0.49999  0.99990  1.0000
  Cu  Cu6       1.0  0.00010  0.50001  0.50000  1.0000
  Zn  Zn1       1.0  0.60066  0.19985  0.25000  1.0000
  Zn  Zn2       1.0  0.39987  0.60016  0.75000  1.0000
  Zn  Zn3       1.0  0.80015  0.39939  0.25000  1.0000
  Zn  Zn4       1.0  0.39936  0.80015  0.75000  1.0000
  Zn  Zn5       1.0  0.60012  0.39983  0.25000  1.0000
  Zn  Zn6       1.0  0.19986  0.60062  0.75000  1.0000
