data_image0
_chemical_formula_structural       C18HO2H2O2H2O2HC18HO2H2O2H2O2HC18HO2H2O2H2O2HC18HO2H2O2H2O2HC18HO2H2O2H2O2HC18HO2H2O2H2O2HC18HO2H2O2H2O2HC18HO2H2O2H2O2HCu6Zn6
_chemical_formula_sum              "C144 H48 O48 Cu6 Zn6"
_cell_length_a       53.0283
_cell_length_b       53.0283
_cell_length_c       21.2295
_cell_angle_alpha    90
_cell_angle_beta     90
_cell_angle_gamma    119.829

_space_group_name_H-M_alt    "P 1"
_space_group_IT_number       1

loop_
  _space_group_symop_operation_xyz
  'x, y, z'

loop_
  _atom_site_type_symbol
  _atom_site_label
  _atom_site_symmetry_multiplicity
  _atom_site_fract_x
  _atom_site_fract_y
  _atom_site_fract_z
  _atom_site_occupancy
  C   C1        1.0  0.69333  0.33301  0.25000  1.0000
  C   C2        1.0  0.69328  0.35938  0.25000  1.0000
  C   C3        1.0  0.66690  0.35942  0.25000  1.0000
  C   C4        1.0  0.64057  0.33309  0.25000  1.0000
  C   C5        1.0  0.64062  0.30671  0.25000  1.0000
  C   C6        1.0  0.66700  0.30667  0.25000  1.0000
  C   C7        1.0  0.61419  0.33313  0.25000  1.0000
  C   C8        1.0  0.61414  0.35950  0.25000  1.0000
  C   C9        1.0  0.64047  0.38584  0.25000  1.0000
  C   C10       1.0  0.66685  0.38580  0.25000  1.0000
  C   C11       1.0  0.71972  0.33297  0.25000  1.0000
  C   C12       1.0  0.74605  0.35930  0.25000  1.0000
  C   C13       1.0  0.74600  0.38568  0.25000  1.0000
  C   C14       1.0  0.71961  0.38572  0.25000  1.0000
  C   C15       1.0  0.66705  0.28029  0.25000  1.0000
  C   C16       1.0  0.64072  0.25396  0.25000  1.0000
  C   C17       1.0  0.61434  0.25400  0.25000  1.0000
  C   C18       1.0  0.61429  0.28037  0.25000  1.0000
  H   H1        1.0  0.59444  0.31337  0.25000  1.0000
  O   O1        1.0  0.59040  0.35954  0.25000  1.0000
  O   O2        1.0  0.64043  0.40958  0.25000  1.0000
  H   H2        1.0  0.68660  0.40555  0.25000  1.0000
  H   H3        1.0  0.71975  0.31318  0.25000  1.0000
  O   O3        1.0  0.76979  0.35926  0.25000  1.0000
  O   O4        1.0  0.76969  0.40938  0.25000  1.0000
  H   H4        1.0  0.71958  0.40550  0.25000  1.0000
  H   H5        1.0  0.68684  0.28026  0.25000  1.0000
  O   O5        1.0  0.64077  0.23022  0.25000  1.0000
  O   O6        1.0  0.59065  0.23030  0.25000  1.0000
  H   H6        1.0  0.59451  0.28041  0.25000  1.0000
  C   C19       1.0  0.30667  0.66700  0.75000  1.0000
  C   C20       1.0  0.30672  0.64062  0.75000  1.0000
  C   C21       1.0  0.33310  0.64058  0.75000  1.0000
  C   C22       1.0  0.35943  0.66691  0.75000  1.0000
  C   C23       1.0  0.35938  0.69329  0.75000  1.0000
  C   C24       1.0  0.33300  0.69333  0.75000  1.0000
  C   C25       1.0  0.38581  0.66687  0.75000  1.0000
  C   C26       1.0  0.38586  0.64049  0.75000  1.0000
  C   C27       1.0  0.35952  0.61416  0.75000  1.0000
  C   C28       1.0  0.33314  0.61420  0.75000  1.0000
  C   C29       1.0  0.28029  0.66704  0.75000  1.0000
  C   C30       1.0  0.25396  0.64071  0.75000  1.0000
  C   C31       1.0  0.25401  0.61433  0.75000  1.0000
  C   C32       1.0  0.28039  0.61429  0.75000  1.0000
  C   C33       1.0  0.33295  0.71971  0.75000  1.0000
  C   C34       1.0  0.35928  0.74604  0.75000  1.0000
  C   C35       1.0  0.38566  0.74600  0.75000  1.0000
  C   C36       1.0  0.38571  0.71962  0.75000  1.0000
  H   H7        1.0  0.40556  0.68662  0.75000  1.0000
  O   O7        1.0  0.40960  0.64045  0.75000  1.0000
  O   O8        1.0  0.35957  0.59042  0.75000  1.0000
  H   H8        1.0  0.31340  0.59445  0.75000  1.0000
  H   H9        1.0  0.28025  0.68682  0.75000  1.0000
  O   O9        1.0  0.23022  0.64074  0.75000  1.0000
  O   O10       1.0  0.23031  0.59063  0.75000  1.0000
  H   H10       1.0  0.28042  0.59450  0.75000  1.0000
  H   H11       1.0  0.31317  0.71974  0.75000  1.0000
  O   O11       1.0  0.35924  0.76978  0.75000  1.0000
  O   O12       1.0  0.40936  0.76970  0.75000  1.0000
  H   H12       1.0  0.40550  0.71959  0.75000  1.0000
  C   C37       1.0  0.52086  0.04025  0.21703  1.0000
  C   C38       1.0  0.53411  0.06660  0.18405  1.0000
  C   C39       1.0  0.54737  0.09296  0.21703  1.0000
  C   C40       1.0  0.54737  0.09296  0.28297  1.0000
  C   C41       1.0  0.53411  0.06660  0.31594  1.0000
  C   C42       1.0  0.52086  0.04025  0.28297  1.0000
  C   C43       1.0  0.56063  0.11931  0.31594  1.0000
  C   C44       1.0  0.57389  0.14567  0.28297  1.0000
  C   C45       1.0  0.57389  0.14567  0.21703  1.0000
  C   C46       1.0  0.56063  0.11931  0.18405  1.0000
  C   C47       1.0  0.50760  0.01389  0.18405  1.0000
  C   C48       1.0  0.50760  0.01389  0.11811  1.0000
  C   C49       1.0  0.52086  0.04025  0.08513  1.0000
  C   C50       1.0  0.53411  0.06660  0.11811  1.0000
  C   C51       1.0  0.50760  0.01389  0.31594  1.0000
  C   C52       1.0  0.50760  0.01389  0.38189  1.0000
  C   C53       1.0  0.52086  0.04025  0.41486  1.0000
  C   C54       1.0  0.53411  0.06660  0.38189  1.0000
  H   H13       1.0  0.56063  0.11931  0.36540  1.0000
  O   O13       1.0  0.58582  0.16939  0.31265  1.0000
  O   O14       1.0  0.58582  0.16939  0.18735  1.0000
  H   H14       1.0  0.56063  0.11931  0.13459  1.0000
  H   H15       1.0  0.49765  0.99413  0.20878  1.0000
  O   O15       1.0  0.49567  0.99017  0.08843  1.0000
  O   O16       1.0  0.52086  0.04025  0.02578  1.0000
  H   H16       1.0  0.54406  0.08637  0.09338  1.0000
  H   H17       1.0  0.49765  0.99413  0.29121  1.0000
  O   O17       1.0  0.49567  0.99017  0.41157  1.0000
  O   O18       1.0  0.52086  0.04025  0.47421  1.0000
  H   H18       1.0  0.54406  0.08637  0.40662  1.0000
  C   C55       1.0  0.46663  0.53341  0.81595  1.0000
  C   C56       1.0  0.47984  0.52020  0.78298  1.0000
  C   C57       1.0  0.47984  0.52020  0.71703  1.0000
  C   C58       1.0  0.46663  0.53341  0.68406  1.0000
  C   C59       1.0  0.45342  0.54663  0.71703  1.0000
  C   C60       1.0  0.45342  0.54663  0.78298  1.0000
  C   C61       1.0  0.46663  0.53341  0.61811  1.0000
  C   C62       1.0  0.47984  0.52020  0.58514  1.0000
  C   C63       1.0  0.49305  0.50698  0.61811  1.0000
  C   C64       1.0  0.49305  0.50698  0.68406  1.0000
  C   C65       1.0  0.46663  0.53341  0.88190  1.0000
  C   C66       1.0  0.47984  0.52020  0.91487  1.0000
  C   C67       1.0  0.49305  0.50698  0.88190  1.0000
  C   C68       1.0  0.49305  0.50698  0.81595  1.0000
  C   C69       1.0  0.44021  0.55984  0.81595  1.0000
  C   C70       1.0  0.42700  0.57306  0.78298  1.0000
  C   C71       1.0  0.42700  0.57306  0.71703  1.0000
  C   C72       1.0  0.44021  0.55984  0.68406  1.0000
  H   H19       1.0  0.45673  0.54332  0.59338  1.0000
  O   O19       1.0  0.47984  0.52020  0.52579  1.0000
  O   O20       1.0  0.50494  0.49509  0.58844  1.0000
  H   H20       1.0  0.50296  0.49707  0.70879  1.0000
  H   H21       1.0  0.45673  0.54332  0.90663  1.0000
  O   O21       1.0  0.47984  0.52020  0.97422  1.0000
  O   O22       1.0  0.50494  0.49509  0.91157  1.0000
  H   H22       1.0  0.50296  0.49707  0.79122  1.0000
  H   H23       1.0  0.44021  0.55984  0.86541  1.0000
  O   O23       1.0  0.41512  0.58495  0.81265  1.0000
  O   O24       1.0  0.41512  0.58495  0.68735  1.0000
  H   H24       1.0  0.44021  0.55984  0.63460  1.0000
  C   C73       1.0  0.93339  0.46596  0.18405  1.0000
  C   C74       1.0  0.95975  0.47921  0.21703  1.0000
  C   C75       1.0  0.95975  0.47921  0.28297  1.0000
  C   C76       1.0  0.93339  0.46596  0.31594  1.0000
  C   C77       1.0  0.90704  0.45270  0.28297  1.0000
  C   C78       1.0  0.90704  0.45270  0.21703  1.0000
  C   C79       1.0  0.93339  0.46596  0.38189  1.0000
  C   C80       1.0  0.95975  0.47921  0.41486  1.0000
  C   C81       1.0  0.98611  0.49247  0.38189  1.0000
  C   C82       1.0  0.98611  0.49247  0.31594  1.0000
  C   C83       1.0  0.93339  0.46596  0.11811  1.0000
  C   C84       1.0  0.95975  0.47921  0.08513  1.0000
  C   C85       1.0  0.98611  0.49247  0.11811  1.0000
  C   C86       1.0  0.98611  0.49247  0.18405  1.0000
  C   C87       1.0  0.88068  0.43945  0.18405  1.0000
  C   C88       1.0  0.85433  0.42619  0.21703  1.0000
  C   C89       1.0  0.85433  0.42619  0.28297  1.0000
  C   C90       1.0  0.88068  0.43945  0.31594  1.0000
  H   H25       1.0  0.91363  0.45602  0.40662  1.0000
  O   O25       1.0  0.95975  0.47921  0.47421  1.0000
  O   O26       1.0  0.00983  0.50440  0.41157  1.0000
  H   H26       1.0  0.00587  0.50241  0.29121  1.0000
  H   H27       1.0  0.91363  0.45602  0.09338  1.0000
  O   O27       1.0  0.95975  0.47921  0.02578  1.0000
  O   O28       1.0  0.00982  0.50440  0.08843  1.0000
  H   H28       1.0  0.00587  0.50241  0.20878  1.0000
  H   H29       1.0  0.88068  0.43945  0.13459  1.0000
  O   O29       1.0  0.83061  0.41426  0.18735  1.0000
  O   O30       1.0  0.83061  0.41426  0.31265  1.0000
  H   H30       1.0  0.88068  0.43945  0.36540  1.0000
  C   C91       1.0  0.46591  0.93340  0.81594  1.0000
  C   C92       1.0  0.47917  0.95975  0.78297  1.0000
  C   C93       1.0  0.47917  0.95975  0.71703  1.0000
  C   C94       1.0  0.46591  0.93340  0.68405  1.0000
  C   C95       1.0  0.45265  0.90704  0.71703  1.0000
  C   C96       1.0  0.45265  0.90704  0.78297  1.0000
  C   C97       1.0  0.46591  0.93340  0.61811  1.0000
  C   C98       1.0  0.47917  0.95975  0.58513  1.0000
  C   C99       1.0  0.49243  0.98611  0.61811  1.0000
  C   C100      1.0  0.49243  0.98611  0.68405  1.0000
  C   C101      1.0  0.46591  0.93340  0.88189  1.0000
  C   C102      1.0  0.47917  0.95975  0.91486  1.0000
  C   C103      1.0  0.49243  0.98611  0.88189  1.0000
  C   C104      1.0  0.49243  0.98611  0.81594  1.0000
  C   C105      1.0  0.43939  0.88069  0.81594  1.0000
  C   C106      1.0  0.42613  0.85433  0.78297  1.0000
  C   C107      1.0  0.42613  0.85433  0.71703  1.0000
  C   C108      1.0  0.43939  0.88069  0.68405  1.0000
  H   H31       1.0  0.45596  0.91363  0.59338  1.0000
  O   O31       1.0  0.47917  0.95975  0.52578  1.0000
  O   O32       1.0  0.50436  0.00983  0.58843  1.0000
  H   H32       1.0  0.50237  0.00587  0.70878  1.0000
  H   H33       1.0  0.45596  0.91363  0.90662  1.0000
  O   O33       1.0  0.47917  0.95975  0.97421  1.0000
  O   O34       1.0  0.50436  0.00983  0.91157  1.0000
  H   H34       1.0  0.50237  0.00587  0.79122  1.0000
  H   H35       1.0  0.43939  0.88069  0.86540  1.0000
  O   O35       1.0  0.41419  0.83061  0.81265  1.0000
  O   O36       1.0  0.41419  0.83061  0.68735  1.0000
  H   H36       1.0  0.43939  0.88069  0.63459  1.0000
  C   C109      1.0  0.52014  0.47978  0.28298  1.0000
  C   C110      1.0  0.53335  0.46657  0.31595  1.0000
  C   C111      1.0  0.54656  0.45336  0.28298  1.0000
  C   C112      1.0  0.54656  0.45336  0.21703  1.0000
  C   C113      1.0  0.53335  0.46657  0.18406  1.0000
  C   C114      1.0  0.52014  0.47978  0.21703  1.0000
  C   C115      1.0  0.55977  0.44014  0.18406  1.0000
  C   C116      1.0  0.57298  0.42693  0.21703  1.0000
  C   C117      1.0  0.57298  0.42693  0.28298  1.0000
  C   C118      1.0  0.55977  0.44014  0.31595  1.0000
  C   C119      1.0  0.50693  0.49300  0.31595  1.0000
  C   C120      1.0  0.50693  0.49300  0.38190  1.0000
  C   C121      1.0  0.52014  0.47978  0.41487  1.0000
  C   C122      1.0  0.53335  0.46657  0.38190  1.0000
  C   C123      1.0  0.50693  0.49300  0.18406  1.0000
  C   C124      1.0  0.50693  0.49300  0.11811  1.0000
  C   C125      1.0  0.52014  0.47978  0.08514  1.0000
  C   C126      1.0  0.53335  0.46657  0.11811  1.0000
  H   H37       1.0  0.55977  0.44014  0.13460  1.0000
  O   O37       1.0  0.58487  0.41504  0.18735  1.0000
  O   O38       1.0  0.58487  0.41504  0.31265  1.0000
  H   H38       1.0  0.55977  0.44014  0.36541  1.0000
  H   H39       1.0  0.49702  0.50291  0.29122  1.0000
  O   O39       1.0  0.49504  0.50489  0.41157  1.0000
  O   O40       1.0  0.52014  0.47978  0.47422  1.0000
  H   H40       1.0  0.54326  0.45666  0.40663  1.0000
  H   H41       1.0  0.49702  0.50291  0.20879  1.0000
  O   O41       1.0  0.49504  0.50489  0.08844  1.0000
  O   O42       1.0  0.52014  0.47978  0.02579  1.0000
  H   H42       1.0  0.54326  0.45666  0.09338  1.0000
  C   C127      1.0  0.04025  0.52081  0.78297  1.0000
  C   C128      1.0  0.06661  0.53406  0.81594  1.0000
  C   C129      1.0  0.09296  0.54731  0.78297  1.0000
  C   C130      1.0  0.09296  0.54731  0.71703  1.0000
  C   C131      1.0  0.06661  0.53406  0.68405  1.0000
  C   C132      1.0  0.04025  0.52081  0.71703  1.0000
  C   C133      1.0  0.11932  0.56057  0.68405  1.0000
  C   C134      1.0  0.14567  0.57382  0.71703  1.0000
  C   C135      1.0  0.14567  0.57382  0.78297  1.0000
  C   C136      1.0  0.11932  0.56057  0.81594  1.0000
  C   C137      1.0  0.01390  0.50755  0.81594  1.0000
  C   C138      1.0  0.01390  0.50755  0.88189  1.0000
  C   C139      1.0  0.04025  0.52081  0.91486  1.0000
  C   C140      1.0  0.06661  0.53406  0.88189  1.0000
  C   C141      1.0  0.01390  0.50755  0.68405  1.0000
  C   C142      1.0  0.01390  0.50755  0.61811  1.0000
  C   C143      1.0  0.04025  0.52081  0.58513  1.0000
  C   C144      1.0  0.06661  0.53406  0.61811  1.0000
  H   H43       1.0  0.11932  0.56057  0.63459  1.0000
  O   O43       1.0  0.16939  0.58575  0.68735  1.0000
  O   O44       1.0  0.16939  0.58575  0.81265  1.0000
  H   H44       1.0  0.11932  0.56057  0.86540  1.0000
  H   H45       1.0  0.99413  0.49761  0.79122  1.0000
  O   O45       1.0  0.99018  0.49562  0.91157  1.0000
  O   O46       1.0  0.04025  0.52081  0.97421  1.0000
  H   H46       1.0  0.08637  0.54400  0.90662  1.0000
  H   H47       1.0  0.99413  0.49761  0.70878  1.0000
  O   O47       1.0  0.99018  0.49562  0.58843  1.0000
  O   O48       1.0  0.04025  0.52081  0.52578  1.0000
  H   H48       1.0  0.08637  0.54400  0.59338  1.0000
  Cu  Cu1       1.0  0.50001  0.99990  0.99990  1.0000
  Cu  Cu2       1.0  0.49999  0.49999  0.50000  1.0000
  Cu  Cu3       1.0  0.00010  0.50001  0.99990  1.0000
  Cu  Cu4       1.0  0.50001  0.99990  0.50000  1.0000
  Cu  Cu5       1.0  0.49999  0.49999  0.00010  1.0000
  Cu  Cu6       1.0  0.00010  0.50001  0.50000  1.0000
  Zn  Zn1       1.0  0.60076  0.19982  0.25000  1.0000
  Zn  Zn2       1.0  0.39985  0.60019  0.75000  1.0000
  Zn  Zn3       1.0  0.80018  0.39929  0.25000  1.0000
  Zn  Zn4       1.0  0.39925  0.80018  0.75000  1.0000
  Zn  Zn5       1.0  0.60014  0.39980  0.25000  1.0000
  Zn  Zn6       1.0  0.19983  0.60072  0.75000  1.0000
