data_image0
_chemical_formula_structural       Fe8C6HO2HO2C6HO2HO2C6HO2HO2C6HO2HO2C6HO2HO2C6HO2HO2C6HO2HO2C6HO2HO2C6HO2HO2C6HO2HO2C6HO2HO2C6HO2HO2
_chemical_formula_sum              "Fe8 C72 H24 O48"
_cell_length_a       32.2735
_cell_length_b       32.2735
_cell_length_c       12.9279
_cell_angle_alpha    90
_cell_angle_beta     90
_cell_angle_gamma    119.72

_space_group_name_H-M_alt    "P 1"
_space_group_IT_number       1

loop_
  _space_group_symop_operation_xyz
  'x, y, z'

loop_
  _atom_site_type_symbol
  _atom_site_label
  _atom_site_symmetry_multiplicity
  _atom_site_fract_x
  _atom_site_fract_y
  _atom_site_fract_z
  _atom_site_occupancy
  Fe  Fe1       1.0  0.66713  0.33287  0.25000  1.0000
  Fe  Fe2       1.0  0.33287  0.66714  0.75000  1.0000
  Fe  Fe3       1.0  0.53460  0.06657  0.25000  1.0000
  Fe  Fe4       1.0  0.46659  0.53345  0.75000  1.0000
  Fe  Fe5       1.0  0.93344  0.46546  0.25000  1.0000
  Fe  Fe6       1.0  0.46544  0.93344  0.75000  1.0000
  Fe  Fe7       1.0  0.53339  0.46654  0.25000  1.0000
  Fe  Fe8       1.0  0.06655  0.53454  0.75000  1.0000
  C   C1        1.0  0.47757  0.02569  0.96978  1.0000
  C   C2        1.0  0.47737  0.99123  0.90368  1.0000
  C   C3        1.0  0.49982  0.96554  0.93390  1.0000
  C   C4        1.0  0.52247  0.97432  0.03022  1.0000
  C   C5        1.0  0.52267  0.00878  0.09632  1.0000
  C   C6        1.0  0.50023  0.03447  0.06610  1.0000
  H   H1        1.0  0.46074  0.04495  0.94711  1.0000
  O   O1        1.0  0.45698  0.98333  0.81699  1.0000
  O   O2        1.0  0.49963  0.93453  0.87441  1.0000
  H   H2        1.0  0.53930  0.95506  0.05289  1.0000
  O   O3        1.0  0.54306  0.01668  0.18301  1.0000
  O   O4        1.0  0.50041  0.06548  0.12559  1.0000
  C   C7        1.0  0.52273  0.54780  0.46871  1.0000
  C   C8        1.0  0.52221  0.51302  0.40314  1.0000
  C   C9        1.0  0.49947  0.46521  0.43442  1.0000
  C   C10       1.0  0.47725  0.45218  0.53129  1.0000
  C   C11       1.0  0.47777  0.48696  0.59686  1.0000
  C   C12       1.0  0.50051  0.53477  0.56558  1.0000
  H   H3        1.0  0.53978  0.58365  0.44525  1.0000
  O   O5        1.0  0.54220  0.52475  0.31596  1.0000
  O   O6        1.0  0.49900  0.43391  0.37541  1.0000
  H   H4        1.0  0.46020  0.41633  0.55475  1.0000
  O   O7        1.0  0.45778  0.47523  0.68404  1.0000
  O   O8        1.0  0.50098  0.56607  0.62459  1.0000
  C   C13       1.0  0.97572  0.45232  0.96774  1.0000
  C   C14       1.0  0.00948  0.48757  0.90266  1.0000
  C   C15       1.0  0.03375  0.53524  0.93492  1.0000
  C   C16       1.0  0.02428  0.54768  0.03226  1.0000
  C   C17       1.0  0.99052  0.51243  0.09735  1.0000
  C   C18       1.0  0.96624  0.46476  0.06508  1.0000
  H   H5        1.0  0.95751  0.41657  0.94354  1.0000
  O   O9        1.0  0.01801  0.47638  0.81505  1.0000
  O   O10       1.0  0.06414  0.56696  0.87634  1.0000
  H   H6        1.0  0.04249  0.58343  0.05646  1.0000
  O   O11       1.0  0.98199  0.52362  0.18496  1.0000
  O   O12       1.0  0.93586  0.43304  0.12366  1.0000
  C   C19       1.0  0.54769  0.02427  0.53230  1.0000
  C   C20       1.0  0.53528  0.03376  0.43494  1.0000
  C   C21       1.0  0.48761  0.00949  0.40264  1.0000
  C   C22       1.0  0.45235  0.97574  0.46770  1.0000
  C   C23       1.0  0.46476  0.96625  0.56506  1.0000
  C   C24       1.0  0.51243  0.99052  0.59736  1.0000
  H   H7        1.0  0.58344  0.04246  0.55653  1.0000
  O   O13       1.0  0.56702  0.06413  0.37638  1.0000
  O   O14       1.0  0.47645  0.01803  0.31501  1.0000
  H   H8        1.0  0.41660  0.95755  0.44347  1.0000
  O   O15       1.0  0.43302  0.93588  0.62362  1.0000
  O   O16       1.0  0.52359  0.98198  0.68499  1.0000
  C   C25       1.0  0.54780  0.52271  0.96876  1.0000
  C   C26       1.0  0.53474  0.50048  0.06560  1.0000
  C   C27       1.0  0.48693  0.47776  0.09684  1.0000
  C   C28       1.0  0.45218  0.47727  0.03124  1.0000
  C   C29       1.0  0.46524  0.49950  0.93440  1.0000
  C   C30       1.0  0.51305  0.52223  0.90316  1.0000
  H   H9        1.0  0.58366  0.53975  0.94533  1.0000
  O   O17       1.0  0.56602  0.50092  0.12464  1.0000
  O   O18       1.0  0.47518  0.45775  0.18399  1.0000
  H   H10       1.0  0.41632  0.46023  0.05467  1.0000
  O   O19       1.0  0.43396  0.49907  0.87536  1.0000
  O   O20       1.0  0.52480  0.54224  0.81601  1.0000
  C   C31       1.0  0.02567  0.47754  0.46974  1.0000
  C   C32       1.0  0.03445  0.50018  0.56608  1.0000
  C   C33       1.0  0.00878  0.52263  0.59634  1.0000
  C   C34       1.0  0.97433  0.52246  0.53026  1.0000
  C   C35       1.0  0.96554  0.49982  0.43392  1.0000
  C   C36       1.0  0.99121  0.47737  0.40366  1.0000
  H   H11       1.0  0.04492  0.46070  0.44704  1.0000
  O   O21       1.0  0.06546  0.50034  0.62556  1.0000
  O   O22       1.0  0.01668  0.54300  0.68306  1.0000
  H   H12       1.0  0.95507  0.53930  0.55296  1.0000
  O   O23       1.0  0.93453  0.49966  0.37444  1.0000
  O   O24       1.0  0.98331  0.45700  0.31694  1.0000
  C   C37       1.0  0.56562  0.19970  0.31253  1.0000
  C   C38       1.0  0.56191  0.15645  0.28126  1.0000
  C   C39       1.0  0.59733  0.15647  0.21874  1.0000
  C   C40       1.0  0.63648  0.19973  0.18747  1.0000
  C   C41       1.0  0.64019  0.24298  0.21874  1.0000
  C   C42       1.0  0.60476  0.24296  0.28126  1.0000
  H   H13       1.0  0.53905  0.19968  0.35942  1.0000
  O   O25       1.0  0.52668  0.11751  0.30940  1.0000
  O   O26       1.0  0.59399  0.11754  0.19060  1.0000
  H   H14       1.0  0.66305  0.19975  0.14058  1.0000
  O   O27       1.0  0.67542  0.28192  0.19060  1.0000
  O   O28       1.0  0.60811  0.28189  0.30940  1.0000
  C   C43       1.0  0.43500  0.63557  0.81252  1.0000
  C   C44       1.0  0.43909  0.59622  0.78126  1.0000
  C   C45       1.0  0.40382  0.56094  0.71874  1.0000
  C   C46       1.0  0.36446  0.56502  0.68748  1.0000
  C   C47       1.0  0.36037  0.60438  0.71874  1.0000
  C   C48       1.0  0.39564  0.63965  0.78126  1.0000
  H   H15       1.0  0.46145  0.66202  0.85941  1.0000
  O   O29       1.0  0.47451  0.59254  0.80940  1.0000
  O   O30       1.0  0.40750  0.52553  0.69060  1.0000
  H   H16       1.0  0.33801  0.53857  0.64059  1.0000
  O   O31       1.0  0.32495  0.60805  0.69060  1.0000
  O   O32       1.0  0.39196  0.67506  0.80940  1.0000
  C   C49       1.0  0.80028  0.37394  0.33842  1.0000
  C   C50       1.0  0.84354  0.40791  0.29421  1.0000
  C   C51       1.0  0.84354  0.43296  0.20579  1.0000
  C   C52       1.0  0.80029  0.42404  0.16158  1.0000
  C   C53       1.0  0.75703  0.39007  0.20579  1.0000
  C   C54       1.0  0.75703  0.36502  0.29421  1.0000
  H   H17       1.0  0.80028  0.35516  0.40474  1.0000
  O   O33       1.0  0.88247  0.41594  0.33400  1.0000
  O   O34       1.0  0.88248  0.46353  0.16600  1.0000
  H   H18       1.0  0.80029  0.44282  0.09526  1.0000
  O   O35       1.0  0.71810  0.38204  0.16600  1.0000
  O   O36       1.0  0.71810  0.33446  0.33400  1.0000
  C   C55       1.0  0.43439  0.80030  0.68747  1.0000
  C   C56       1.0  0.43812  0.84355  0.71874  1.0000
  C   C57       1.0  0.40269  0.84355  0.78126  1.0000
  C   C58       1.0  0.36355  0.80028  0.81253  1.0000
  C   C59       1.0  0.35982  0.75703  0.78126  1.0000
  C   C60       1.0  0.39524  0.75704  0.71874  1.0000
  H   H19       1.0  0.46096  0.80031  0.64058  1.0000
  O   O37       1.0  0.47335  0.88249  0.69060  1.0000
  O   O38       1.0  0.40605  0.88247  0.80940  1.0000
  H   H20       1.0  0.33698  0.80028  0.85942  1.0000
  O   O39       1.0  0.32459  0.71809  0.80940  1.0000
  O   O40       1.0  0.39189  0.71811  0.69060  1.0000
  C   C61       1.0  0.56499  0.36442  0.18748  1.0000
  C   C62       1.0  0.56090  0.40377  0.21874  1.0000
  C   C63       1.0  0.59616  0.43905  0.28126  1.0000
  C   C64       1.0  0.63552  0.43497  0.31252  1.0000
  C   C65       1.0  0.63962  0.39562  0.28126  1.0000
  C   C66       1.0  0.60435  0.36035  0.21874  1.0000
  H   H21       1.0  0.53854  0.33797  0.14059  1.0000
  O   O41       1.0  0.52547  0.40744  0.19060  1.0000
  O   O42       1.0  0.59248  0.47446  0.30940  1.0000
  H   H22       1.0  0.66197  0.46143  0.35941  1.0000
  O   O43       1.0  0.67504  0.39195  0.30940  1.0000
  O   O44       1.0  0.60804  0.32493  0.19060  1.0000
  C   C67       1.0  0.19971  0.63643  0.68747  1.0000
  C   C68       1.0  0.15645  0.59728  0.71874  1.0000
  C   C69       1.0  0.15645  0.56186  0.78126  1.0000
  C   C70       1.0  0.19971  0.56560  0.81253  1.0000
  C   C71       1.0  0.24297  0.60475  0.78126  1.0000
  C   C72       1.0  0.24297  0.64017  0.71874  1.0000
  H   H23       1.0  0.19971  0.66300  0.64058  1.0000
  O   O45       1.0  0.11752  0.59392  0.69060  1.0000
  O   O46       1.0  0.11752  0.52662  0.80940  1.0000
  H   H24       1.0  0.19971  0.53903  0.85942  1.0000
  O   O47       1.0  0.28190  0.60811  0.80940  1.0000
  O   O48       1.0  0.28190  0.67541  0.69060  1.0000
