data_image0
_chemical_formula_structural       Fe12C6HO2HO2C6HO2HO2C6HO2HO2C6HO2HO2C6HO2HO2C6HO2HO2C6HO2HO2C6HO2HO2C6HO2HO2C6HO2HO2C6HO2HO2C6HO2HO2C6HO2HO2C6HO2HO2C6HO2HO2C6HO2HO2C6HO2HO2C6HO2HO2
_chemical_formula_sum              "Fe12 C108 H36 O72"
_cell_length_a       29.3634
_cell_length_b       29.3635
_cell_length_c       20.964
_cell_angle_alpha    90
_cell_angle_beta     90
_cell_angle_gamma    120.003

_space_group_name_H-M_alt    "P 1"
_space_group_IT_number       1

loop_
  _space_group_symop_operation_xyz
  'x, y, z'

loop_
  _atom_site_type_symbol
  _atom_site_label
  _atom_site_symmetry_multiplicity
  _atom_site_fract_x
  _atom_site_fract_y
  _atom_site_fract_z
  _atom_site_occupancy
  Fe  Fe1       1.0  0.46726  0.10892  0.11992  1.0000
  Fe  Fe2       1.0  0.35835  0.46729  0.28653  1.0000
  Fe  Fe3       1.0  0.89107  0.35835  0.45319  1.0000
  Fe  Fe4       1.0  0.53275  0.89109  0.61992  1.0000
  Fe  Fe5       1.0  0.64165  0.53270  0.78652  1.0000
  Fe  Fe6       1.0  0.10893  0.64165  0.95319  1.0000
  Fe  Fe7       1.0  0.89108  0.53275  0.71341  1.0000
  Fe  Fe8       1.0  0.35836  0.89107  0.88014  1.0000
  Fe  Fe9       1.0  0.46730  0.35835  0.04682  1.0000
  Fe  Fe10      1.0  0.10892  0.46725  0.21340  1.0000
  Fe  Fe11      1.0  0.64165  0.10893  0.38014  1.0000
  Fe  Fe12      1.0  0.53270  0.64165  0.54681  1.0000
  C   C1        1.0  0.57984  0.09506  0.20308  1.0000
  C   C2        1.0  0.59635  0.10095  0.26670  1.0000
  C   C3        1.0  0.56992  0.11275  0.31366  1.0000
  C   C4        1.0  0.52698  0.11865  0.29699  1.0000
  C   C5        1.0  0.51047  0.11275  0.23337  1.0000
  C   C6        1.0  0.53690  0.10095  0.18641  1.0000
  H   H1        1.0  0.59966  0.08621  0.16786  1.0000
  O   O1        1.0  0.63499  0.09565  0.28170  1.0000
  O   O2        1.0  0.58478  0.11806  0.37092  1.0000
  H   H2        1.0  0.50716  0.12749  0.33221  1.0000
  O   O3        1.0  0.47183  0.11805  0.21837  1.0000
  O   O4        1.0  0.52204  0.09564  0.12915  1.0000
  C   C7        1.0  0.42012  0.51520  0.46361  1.0000
  C   C8        1.0  0.40362  0.50460  0.39999  1.0000
  C   C9        1.0  0.43006  0.54284  0.35304  1.0000
  C   C10       1.0  0.47299  0.59167  0.36973  1.0000
  C   C11       1.0  0.48949  0.60227  0.43335  1.0000
  C   C12       1.0  0.46306  0.56404  0.48030  1.0000
  H   H3        1.0  0.40029  0.48653  0.49882  1.0000
  O   O5        1.0  0.36498  0.46065  0.38497  1.0000
  O   O6        1.0  0.41521  0.53330  0.29578  1.0000
  H   H4        1.0  0.49282  0.62035  0.33452  1.0000
  O   O7        1.0  0.52814  0.64622  0.44837  1.0000
  O   O8        1.0  0.47790  0.57358  0.53756  1.0000
  C   C13       1.0  0.89778  0.48188  0.53539  1.0000
  C   C14       1.0  0.89546  0.43451  0.51920  1.0000
  C   C15       1.0  0.89083  0.39922  0.56711  1.0000
  C   C16       1.0  0.88851  0.41130  0.63120  1.0000
  C   C17       1.0  0.89083  0.45867  0.64739  1.0000
  C   C18       1.0  0.89547  0.49396  0.59949  1.0000
  H   H5        1.0  0.90126  0.50835  0.49946  1.0000
  O   O9        1.0  0.89755  0.42364  0.46152  1.0000
  O   O10       1.0  0.88874  0.35658  0.55254  1.0000
  H   H6        1.0  0.88504  0.38483  0.66713  1.0000
  O   O11       1.0  0.88875  0.46954  0.70508  1.0000
  O   O12       1.0  0.89755  0.53660  0.61406  1.0000
  C   C19       1.0  0.47302  0.88136  0.79700  1.0000
  C   C20       1.0  0.43008  0.88725  0.81366  1.0000
  C   C21       1.0  0.40365  0.89905  0.76670  1.0000
  C   C22       1.0  0.42017  0.90495  0.70308  1.0000
  C   C23       1.0  0.46310  0.89905  0.68642  1.0000
  C   C24       1.0  0.48953  0.88726  0.73337  1.0000
  H   H7        1.0  0.49284  0.87251  0.83221  1.0000
  O   O13       1.0  0.41522  0.88194  0.87092  1.0000
  O   O14       1.0  0.36501  0.90435  0.78170  1.0000
  H   H8        1.0  0.40035  0.91379  0.66786  1.0000
  O   O15       1.0  0.47797  0.90436  0.62916  1.0000
  O   O16       1.0  0.52818  0.88195  0.71838  1.0000
  C   C25       1.0  0.57988  0.48480  0.96361  1.0000
  C   C26       1.0  0.59638  0.49540  0.89998  1.0000
  C   C27       1.0  0.56994  0.45716  0.85304  1.0000
  C   C28       1.0  0.52700  0.40832  0.86973  1.0000
  C   C29       1.0  0.51051  0.39773  0.93336  1.0000
  C   C30       1.0  0.53695  0.43596  0.98030  1.0000
  H   H9        1.0  0.59971  0.51348  0.99882  1.0000
  O   O17       1.0  0.63502  0.53935  0.88496  1.0000
  O   O18       1.0  0.58478  0.46669  0.79577  1.0000
  H   H10       1.0  0.50717  0.37965  0.83452  1.0000
  O   O19       1.0  0.47187  0.35378  0.94838  1.0000
  O   O20       1.0  0.52210  0.42643  0.03756  1.0000
  C   C31       1.0  0.09505  0.51519  0.03633  1.0000
  C   C32       1.0  0.10095  0.50457  0.09995  1.0000
  C   C33       1.0  0.11274  0.54279  0.14691  1.0000
  C   C34       1.0  0.11864  0.59163  0.13025  1.0000
  C   C35       1.0  0.11275  0.60225  0.06663  1.0000
  C   C36       1.0  0.10095  0.56402  0.01967  1.0000
  H   H11       1.0  0.08621  0.48652  0.00111  1.0000
  O   O21       1.0  0.09564  0.46062  0.11495  1.0000
  O   O22       1.0  0.11805  0.53324  0.20417  1.0000
  H   H12       1.0  0.12749  0.62030  0.16547  1.0000
  O   O23       1.0  0.11806  0.64620  0.05164  1.0000
  O   O24       1.0  0.09565  0.57358  0.96241  1.0000
  C   C37       1.0  0.51810  0.25934  0.08516  1.0000
  C   C38       1.0  0.49059  0.28559  0.07076  1.0000
  C   C39       1.0  0.43556  0.25778  0.06897  1.0000
  C   C40       1.0  0.40803  0.20371  0.08158  1.0000
  C   C41       1.0  0.43553  0.17747  0.09598  1.0000
  C   C42       1.0  0.49057  0.20528  0.09777  1.0000
  H   H13       1.0  0.55937  0.28021  0.08651  1.0000
  O   O25       1.0  0.51537  0.33425  0.05942  1.0000
  O   O26       1.0  0.41080  0.28140  0.05601  1.0000
  H   H14       1.0  0.36675  0.18285  0.08024  1.0000
  O   O27       1.0  0.41076  0.12881  0.10733  1.0000
  O   O28       1.0  0.51532  0.18166  0.11073  1.0000
  C   C43       1.0  0.20371  0.40802  0.25175  1.0000
  C   C44       1.0  0.25777  0.43555  0.26437  1.0000
  C   C45       1.0  0.28558  0.49058  0.26258  1.0000
  C   C46       1.0  0.25934  0.51809  0.24817  1.0000
  C   C47       1.0  0.20528  0.49056  0.23556  1.0000
  C   C48       1.0  0.17746  0.43553  0.23735  1.0000
  H   H15       1.0  0.18284  0.36674  0.25310  1.0000
  O   O29       1.0  0.28139  0.41079  0.27733  1.0000
  O   O30       1.0  0.33424  0.51536  0.27393  1.0000
  H   H16       1.0  0.28020  0.55936  0.24683  1.0000
  O   O31       1.0  0.18165  0.51532  0.22260  1.0000
  O   O32       1.0  0.12880  0.41075  0.22600  1.0000
  C   C49       1.0  0.74065  0.25874  0.41845  1.0000
  C   C50       1.0  0.71440  0.20499  0.40406  1.0000
  C   C51       1.0  0.74223  0.17777  0.40228  1.0000
  C   C52       1.0  0.79629  0.20432  0.41489  1.0000
  C   C53       1.0  0.82253  0.25808  0.42927  1.0000
  C   C54       1.0  0.79471  0.28529  0.43105  1.0000
  H   H17       1.0  0.71978  0.27915  0.41978  1.0000
  O   O33       1.0  0.66575  0.18109  0.39272  1.0000
  O   O34       1.0  0.71861  0.12939  0.38933  1.0000
  H   H18       1.0  0.81715  0.18391  0.41355  1.0000
  O   O35       1.0  0.87119  0.28197  0.44062  1.0000
  O   O36       1.0  0.81833  0.33367  0.44400  1.0000
  C   C55       1.0  0.48191  0.74127  0.58159  1.0000
  C   C56       1.0  0.50944  0.79503  0.59599  1.0000
  C   C57       1.0  0.56447  0.82223  0.59777  1.0000
  C   C58       1.0  0.59198  0.79568  0.58515  1.0000
  C   C59       1.0  0.56445  0.74192  0.57076  1.0000
  C   C60       1.0  0.50942  0.71472  0.56897  1.0000
  H   H19       1.0  0.44063  0.72087  0.58025  1.0000
  O   O37       1.0  0.48468  0.81893  0.60734  1.0000
  O   O38       1.0  0.58925  0.87061  0.61073  1.0000
  H   H20       1.0  0.63325  0.81608  0.58649  1.0000
  O   O39       1.0  0.58921  0.71803  0.55940  1.0000
  O   O40       1.0  0.48464  0.66634  0.55602  1.0000
  C   C61       1.0  0.79567  0.59198  0.74818  1.0000
  C   C62       1.0  0.82223  0.56447  0.73556  1.0000
  C   C63       1.0  0.79502  0.50944  0.73735  1.0000
  C   C64       1.0  0.74127  0.48191  0.75175  1.0000
  C   C65       1.0  0.71472  0.50941  0.76436  1.0000
  C   C66       1.0  0.74192  0.56445  0.76257  1.0000
  H   H21       1.0  0.81608  0.63325  0.74684  1.0000
  O   O41       1.0  0.87061  0.58925  0.72260  1.0000
  O   O42       1.0  0.81892  0.48468  0.72600  1.0000
  H   H22       1.0  0.72087  0.44063  0.75308  1.0000
  O   O43       1.0  0.66634  0.48464  0.77732  1.0000
  O   O44       1.0  0.71802  0.58920  0.77393  1.0000
  C   C67       1.0  0.25935  0.74126  0.91845  1.0000
  C   C68       1.0  0.28560  0.79501  0.90406  1.0000
  C   C69       1.0  0.25778  0.82223  0.90228  1.0000
  C   C70       1.0  0.20371  0.79568  0.91489  1.0000
  C   C71       1.0  0.17747  0.74192  0.92927  1.0000
  C   C72       1.0  0.20529  0.71471  0.93105  1.0000
  H   H23       1.0  0.28022  0.72085  0.91978  1.0000
  O   O45       1.0  0.33425  0.81891  0.89272  1.0000
  O   O46       1.0  0.28139  0.87061  0.88933  1.0000
  H   H24       1.0  0.18285  0.81609  0.91355  1.0000
  O   O47       1.0  0.12881  0.71803  0.94062  1.0000
  O   O48       1.0  0.18167  0.66633  0.94400  1.0000
  C   C73       1.0  0.43817  0.03768  0.95328  1.0000
  C   C74       1.0  0.40686  0.98475  0.93622  1.0000
  C   C75       1.0  0.37832  0.94706  0.98297  1.0000
  C   C76       1.0  0.38110  0.96230  0.04678  1.0000
  C   C77       1.0  0.41240  0.01524  0.06384  1.0000
  C   C78       1.0  0.44094  0.05293  0.01709  1.0000
  H   H25       1.0  0.45957  0.06595  0.91822  1.0000
  O   O49       1.0  0.40437  0.97103  0.87880  1.0000
  O   O50       1.0  0.35015  0.89942  0.96762  1.0000
  H   H26       1.0  0.35969  0.93404  0.08184  1.0000
  O   O51       1.0  0.41490  0.02896  0.12127  1.0000
  O   O52       1.0  0.46912  0.10057  0.03245  1.0000
  C   C79       1.0  0.43819  0.40051  0.21344  1.0000
  C   C80       1.0  0.40687  0.42213  0.23048  1.0000
  C   C81       1.0  0.37834  0.43128  0.18371  1.0000
  C   C82       1.0  0.38113  0.41880  0.11991  1.0000
  C   C83       1.0  0.41244  0.39718  0.10287  1.0000
  C   C84       1.0  0.44097  0.38804  0.14963  1.0000
  H   H27       1.0  0.45958  0.39366  0.24851  1.0000
  O   O53       1.0  0.40436  0.43336  0.28790  1.0000
  O   O54       1.0  0.35015  0.45073  0.19904  1.0000
  H   H28       1.0  0.35973  0.42566  0.08483  1.0000
  O   O55       1.0  0.41495  0.38595  0.04545  1.0000
  O   O56       1.0  0.46916  0.36858  0.13430  1.0000
  C   C85       1.0  0.96230  0.38109  0.28655  1.0000
  C   C86       1.0  0.94706  0.37832  0.35036  1.0000
  C   C87       1.0  0.98475  0.40686  0.39711  1.0000
  C   C88       1.0  0.03768  0.43817  0.38004  1.0000
  C   C89       1.0  0.05293  0.44093  0.31623  1.0000
  C   C90       1.0  0.01523  0.41240  0.26949  1.0000
  H   H29       1.0  0.93403  0.35969  0.25149  1.0000
  O   O57       1.0  0.89942  0.35014  0.36572  1.0000
  O   O58       1.0  0.97103  0.40437  0.45454  1.0000
  H   H30       1.0  0.06595  0.45957  0.41510  1.0000
  O   O59       1.0  0.10057  0.46911  0.30088  1.0000
  O   O60       1.0  0.02895  0.41489  0.21206  1.0000
  C   C91       1.0  0.58121  0.96232  0.45328  1.0000
  C   C92       1.0  0.56875  0.94708  0.51710  1.0000
  C   C93       1.0  0.57791  0.98476  0.56385  1.0000
  C   C94       1.0  0.59953  0.03770  0.54679  1.0000
  C   C95       1.0  0.61199  0.05294  0.48297  1.0000
  C   C96       1.0  0.60283  0.01525  0.43622  1.0000
  H   H31       1.0  0.57434  0.93405  0.41822  1.0000
  O   O61       1.0  0.54930  0.89944  0.53245  1.0000
  O   O62       1.0  0.56670  0.97104  0.62128  1.0000
  H   H32       1.0  0.60640  0.06596  0.58185  1.0000
  O   O63       1.0  0.63144  0.10058  0.46762  1.0000
  O   O64       1.0  0.61404  0.02897  0.37879  1.0000
  C   C97       1.0  0.58120  0.61887  0.71343  1.0000
  C   C98       1.0  0.56872  0.62166  0.64963  1.0000
  C   C99       1.0  0.57786  0.59313  0.60286  1.0000
  C   C100      1.0  0.59949  0.56181  0.61990  1.0000
  C   C101      1.0  0.61196  0.55903  0.68370  1.0000
  C   C102      1.0  0.60282  0.58756  0.73047  1.0000
  H   H33       1.0  0.57434  0.64027  0.74850  1.0000
  O   O65       1.0  0.54926  0.64984  0.63429  1.0000
  O   O66       1.0  0.56663  0.59563  0.54544  1.0000
  H   H34       1.0  0.60634  0.54041  0.58483  1.0000
  O   O67       1.0  0.63142  0.53084  0.69904  1.0000
  O   O68       1.0  0.61405  0.58505  0.78789  1.0000
  C   C103      1.0  0.03770  0.61891  0.78655  1.0000
  C   C104      1.0  0.05294  0.62168  0.85036  1.0000
  C   C105      1.0  0.01525  0.59314  0.89711  1.0000
  C   C106      1.0  0.96231  0.56183  0.88005  1.0000
  C   C107      1.0  0.94707  0.55906  0.81624  1.0000
  C   C108      1.0  0.98476  0.58760  0.76949  1.0000
  H   H35       1.0  0.06596  0.64031  0.75149  1.0000
  O   O69       1.0  0.10058  0.64985  0.86571  1.0000
  O   O70       1.0  0.02897  0.59563  0.95454  1.0000
  H   H36       1.0  0.93405  0.54043  0.91511  1.0000
  O   O71       1.0  0.89943  0.53089  0.80088  1.0000
  O   O72       1.0  0.97104  0.58511  0.71206  1.0000
