data_image0
_chemical_formula_structural       C18HO2H2O2H2O2HC18HO2H2O2H2O2HC18HO2H2O2H2O2HC18HO2H2O2H2O2HC18HO2H2O2H2O2HC18HO2H2O2H2O2HC18HO2H2O2H2O2HC18HO2H2O2H2O2HFe8C6HO2HO2C6HO2HO2C6HO2HO2C6HO2HO2Cu4
_chemical_formula_sum              "C168 H56 O64 Fe8 Cu4"
_cell_length_a       22.4597
_cell_length_b       22.4597
_cell_length_c       36.7142
_cell_angle_alpha    90
_cell_angle_beta     90
_cell_angle_gamma    90.1427

_space_group_name_H-M_alt    "P 1"
_space_group_IT_number       1

loop_
  _space_group_symop_operation_xyz
  'x, y, z'

loop_
  _atom_site_type_symbol
  _atom_site_label
  _atom_site_symmetry_multiplicity
  _atom_site_fract_x
  _atom_site_fract_y
  _atom_site_fract_z
  _atom_site_occupancy
  C   C1        1.0  0.32793  0.28390  0.19995  1.0000
  C   C2        1.0  0.34763  0.25959  0.16699  1.0000
  C   C3        1.0  0.32331  0.27929  0.13402  1.0000
  C   C4        1.0  0.27929  0.32331  0.13402  1.0000
  C   C5        1.0  0.25959  0.34763  0.16699  1.0000
  C   C6        1.0  0.28391  0.32793  0.19995  1.0000
  C   C7        1.0  0.25497  0.34302  0.10106  1.0000
  C   C8        1.0  0.27468  0.31870  0.06810  1.0000
  C   C9        1.0  0.31870  0.27468  0.06810  1.0000
  C   C10       1.0  0.34302  0.25497  0.10106  1.0000
  C   C11       1.0  0.35225  0.26420  0.23291  1.0000
  C   C12       1.0  0.39627  0.22018  0.23291  1.0000
  C   C13       1.0  0.41597  0.19586  0.19995  1.0000
  C   C14       1.0  0.39165  0.21556  0.16699  1.0000
  C   C15       1.0  0.26420  0.35224  0.23291  1.0000
  C   C16       1.0  0.22018  0.39626  0.23291  1.0000
  C   C17       1.0  0.19586  0.41597  0.19995  1.0000
  C   C18       1.0  0.21557  0.39165  0.16699  1.0000
  H   H1        1.0  0.22196  0.37603  0.10106  1.0000
  O   O1        1.0  0.25279  0.33643  0.03843  1.0000
  O   O2        1.0  0.33643  0.25279  0.03843  1.0000
  H   H2        1.0  0.37604  0.22196  0.10106  1.0000
  H   H3        1.0  0.33747  0.28244  0.25763  1.0000
  O   O3        1.0  0.41815  0.20244  0.26258  1.0000
  O   O4        1.0  0.45559  0.15624  0.19995  1.0000
  H   H4        1.0  0.40643  0.19733  0.14226  1.0000
  H   H5        1.0  0.28244  0.33747  0.25763  1.0000
  O   O5        1.0  0.20245  0.41815  0.26258  1.0000
  O   O6        1.0  0.15624  0.45559  0.19995  1.0000
  H   H6        1.0  0.19733  0.40643  0.14226  1.0000
  C   C19       1.0  0.71441  0.32972  0.69995  1.0000
  C   C20       1.0  0.73868  0.34958  0.66698  1.0000
  C   C21       1.0  0.71881  0.32532  0.63401  1.0000
  C   C22       1.0  0.67468  0.28119  0.63401  1.0000
  C   C23       1.0  0.65042  0.26132  0.66698  1.0000
  C   C24       1.0  0.67028  0.28558  0.69995  1.0000
  C   C25       1.0  0.65481  0.25692  0.60104  1.0000
  C   C26       1.0  0.67908  0.27679  0.56807  1.0000
  C   C27       1.0  0.72321  0.32092  0.56807  1.0000
  C   C28       1.0  0.74308  0.34519  0.60104  1.0000
  C   C29       1.0  0.73428  0.35398  0.73291  1.0000
  C   C30       1.0  0.77841  0.39811  0.73291  1.0000
  C   C31       1.0  0.80268  0.41798  0.69995  1.0000
  C   C32       1.0  0.78281  0.39372  0.66698  1.0000
  C   C33       1.0  0.64602  0.26572  0.73291  1.0000
  C   C34       1.0  0.60189  0.22159  0.73291  1.0000
  C   C35       1.0  0.58202  0.19732  0.69995  1.0000
  C   C36       1.0  0.60628  0.21719  0.66698  1.0000
  H   H7        1.0  0.62171  0.22383  0.60104  1.0000
  O   O7        1.0  0.66120  0.25495  0.53840  1.0000
  O   O8        1.0  0.74505  0.33880  0.53840  1.0000
  H   H8        1.0  0.77617  0.37829  0.60104  1.0000
  H   H9        1.0  0.71608  0.33908  0.75764  1.0000
  O   O9        1.0  0.79629  0.41995  0.76259  1.0000
  O   O10       1.0  0.84240  0.45770  0.69995  1.0000
  H   H10       1.0  0.80101  0.40862  0.64225  1.0000
  H   H11       1.0  0.66092  0.28392  0.75764  1.0000
  O   O11       1.0  0.58005  0.20370  0.76259  1.0000
  O   O12       1.0  0.54230  0.15760  0.69995  1.0000
  H   H12       1.0  0.59138  0.19899  0.64225  1.0000
  C   C37       1.0  0.71610  0.67207  0.19995  1.0000
  C   C38       1.0  0.74041  0.65237  0.16698  1.0000
  C   C39       1.0  0.72071  0.67669  0.13402  1.0000
  C   C40       1.0  0.67669  0.72071  0.13402  1.0000
  C   C41       1.0  0.65237  0.74041  0.16698  1.0000
  C   C42       1.0  0.67208  0.71610  0.19995  1.0000
  C   C43       1.0  0.65698  0.74503  0.10106  1.0000
  C   C44       1.0  0.68130  0.72532  0.06809  1.0000
  C   C45       1.0  0.72532  0.68130  0.06809  1.0000
  C   C46       1.0  0.74503  0.65698  0.10106  1.0000
  C   C47       1.0  0.73580  0.64775  0.23291  1.0000
  C   C48       1.0  0.77982  0.60373  0.23291  1.0000
  C   C49       1.0  0.80414  0.58403  0.19995  1.0000
  C   C50       1.0  0.78444  0.60835  0.16698  1.0000
  C   C51       1.0  0.64776  0.73580  0.23291  1.0000
  C   C52       1.0  0.60374  0.77982  0.23291  1.0000
  C   C53       1.0  0.58403  0.80414  0.19995  1.0000
  C   C54       1.0  0.60835  0.78444  0.16698  1.0000
  H   H13       1.0  0.62397  0.77804  0.10106  1.0000
  O   O13       1.0  0.66357  0.74721  0.03843  1.0000
  O   O14       1.0  0.74721  0.66357  0.03843  1.0000
  H   H14       1.0  0.77804  0.62397  0.10106  1.0000
  H   H15       1.0  0.71756  0.66253  0.25763  1.0000
  O   O15       1.0  0.79756  0.58185  0.26258  1.0000
  O   O16       1.0  0.84376  0.54441  0.19995  1.0000
  H   H16       1.0  0.80267  0.59357  0.14226  1.0000
  H   H17       1.0  0.66254  0.71756  0.25763  1.0000
  O   O17       1.0  0.58185  0.79756  0.26258  1.0000
  O   O18       1.0  0.54441  0.84376  0.19995  1.0000
  H   H18       1.0  0.59357  0.80267  0.14226  1.0000
  C   C55       1.0  0.32971  0.71442  0.69995  1.0000
  C   C56       1.0  0.34958  0.73869  0.66698  1.0000
  C   C57       1.0  0.32531  0.71882  0.63401  1.0000
  C   C58       1.0  0.28118  0.67469  0.63401  1.0000
  C   C59       1.0  0.26131  0.65042  0.66698  1.0000
  C   C60       1.0  0.28558  0.67029  0.69995  1.0000
  C   C61       1.0  0.25692  0.65482  0.60104  1.0000
  C   C62       1.0  0.27678  0.67908  0.56807  1.0000
  C   C63       1.0  0.32091  0.72322  0.56807  1.0000
  C   C64       1.0  0.34518  0.74308  0.60104  1.0000
  C   C65       1.0  0.35398  0.73429  0.73292  1.0000
  C   C66       1.0  0.39811  0.77842  0.73292  1.0000
  C   C67       1.0  0.41797  0.80268  0.69995  1.0000
  C   C68       1.0  0.39371  0.78282  0.66698  1.0000
  C   C69       1.0  0.26571  0.64602  0.73292  1.0000
  C   C70       1.0  0.22158  0.60189  0.73292  1.0000
  C   C71       1.0  0.19732  0.58203  0.69995  1.0000
  C   C72       1.0  0.21718  0.60629  0.66698  1.0000
  H   H19       1.0  0.22382  0.62172  0.60104  1.0000
  O   O19       1.0  0.25494  0.66120  0.53840  1.0000
  O   O20       1.0  0.33880  0.74505  0.53840  1.0000
  H   H20       1.0  0.37828  0.77618  0.60104  1.0000
  H   H21       1.0  0.33908  0.71609  0.75764  1.0000
  O   O21       1.0  0.41995  0.79630  0.76259  1.0000
  O   O22       1.0  0.45769  0.84240  0.69995  1.0000
  H   H22       1.0  0.40861  0.80102  0.64225  1.0000
  H   H23       1.0  0.28391  0.66092  0.75764  1.0000
  O   O23       1.0  0.20370  0.58005  0.76259  1.0000
  O   O24       1.0  0.15760  0.54231  0.69995  1.0000
  H   H24       1.0  0.19898  0.59139  0.64225  1.0000
  C   C73       1.0  0.26131  0.65042  0.33302  1.0000
  C   C74       1.0  0.28558  0.67029  0.30005  1.0000
  C   C75       1.0  0.32971  0.71442  0.30005  1.0000
  C   C76       1.0  0.34958  0.73869  0.33302  1.0000
  C   C77       1.0  0.32531  0.71882  0.36599  1.0000
  C   C78       1.0  0.28118  0.67469  0.36599  1.0000
  C   C79       1.0  0.39371  0.78282  0.33302  1.0000
  C   C80       1.0  0.41797  0.80268  0.30005  1.0000
  C   C81       1.0  0.39811  0.77842  0.26708  1.0000
  C   C82       1.0  0.35398  0.73429  0.26708  1.0000
  C   C83       1.0  0.21718  0.60629  0.33302  1.0000
  C   C84       1.0  0.19732  0.58203  0.30005  1.0000
  C   C85       1.0  0.22158  0.60189  0.26708  1.0000
  C   C86       1.0  0.26571  0.64602  0.26708  1.0000
  C   C87       1.0  0.25692  0.65482  0.39896  1.0000
  C   C88       1.0  0.27678  0.67909  0.43193  1.0000
  C   C89       1.0  0.32092  0.72322  0.43193  1.0000
  C   C90       1.0  0.34518  0.74308  0.39896  1.0000
  H   H25       1.0  0.40861  0.80102  0.35775  1.0000
  O   O25       1.0  0.45769  0.84240  0.30005  1.0000
  O   O26       1.0  0.41995  0.79630  0.23741  1.0000
  H   H26       1.0  0.33908  0.71609  0.24236  1.0000
  H   H27       1.0  0.19898  0.59139  0.35775  1.0000
  O   O27       1.0  0.15760  0.54231  0.30005  1.0000
  O   O28       1.0  0.20370  0.58005  0.23741  1.0000
  H   H28       1.0  0.28391  0.66092  0.24236  1.0000
  H   H29       1.0  0.22382  0.62172  0.39896  1.0000
  O   O29       1.0  0.25495  0.66120  0.46160  1.0000
  O   O30       1.0  0.33880  0.74506  0.46160  1.0000
  H   H30       1.0  0.37828  0.77618  0.39896  1.0000
  C   C91       1.0  0.32793  0.28390  0.80005  1.0000
  C   C92       1.0  0.34763  0.25959  0.83301  1.0000
  C   C93       1.0  0.32331  0.27929  0.86598  1.0000
  C   C94       1.0  0.27929  0.32331  0.86598  1.0000
  C   C95       1.0  0.25959  0.34763  0.83301  1.0000
  C   C96       1.0  0.28390  0.32792  0.80005  1.0000
  C   C97       1.0  0.25497  0.34302  0.89894  1.0000
  C   C98       1.0  0.27468  0.31870  0.93190  1.0000
  C   C99       1.0  0.31870  0.27468  0.93190  1.0000
  C   C100      1.0  0.34302  0.25497  0.89894  1.0000
  C   C101      1.0  0.35225  0.26420  0.76709  1.0000
  C   C102      1.0  0.39627  0.22018  0.76709  1.0000
  C   C103      1.0  0.41597  0.19586  0.80005  1.0000
  C   C104      1.0  0.39165  0.21556  0.83301  1.0000
  C   C105      1.0  0.26420  0.35224  0.76709  1.0000
  C   C106      1.0  0.22018  0.39626  0.76709  1.0000
  C   C107      1.0  0.19586  0.41597  0.80005  1.0000
  C   C108      1.0  0.21556  0.39165  0.83301  1.0000
  H   H31       1.0  0.22196  0.37603  0.89894  1.0000
  O   O31       1.0  0.25279  0.33643  0.96157  1.0000
  O   O32       1.0  0.33643  0.25279  0.96157  1.0000
  H   H32       1.0  0.37603  0.22196  0.89894  1.0000
  H   H33       1.0  0.33747  0.28244  0.74237  1.0000
  O   O33       1.0  0.41815  0.20244  0.73742  1.0000
  O   O34       1.0  0.45559  0.15624  0.80005  1.0000
  H   H34       1.0  0.40643  0.19733  0.85774  1.0000
  H   H35       1.0  0.28244  0.33746  0.74237  1.0000
  O   O35       1.0  0.20244  0.41815  0.73742  1.0000
  O   O36       1.0  0.15624  0.45559  0.80005  1.0000
  H   H36       1.0  0.19733  0.40643  0.85774  1.0000
  C   C109      1.0  0.65042  0.26132  0.33302  1.0000
  C   C110      1.0  0.67028  0.28559  0.30005  1.0000
  C   C111      1.0  0.71442  0.32972  0.30005  1.0000
  C   C112      1.0  0.73868  0.34958  0.33302  1.0000
  C   C113      1.0  0.71881  0.32532  0.36599  1.0000
  C   C114      1.0  0.67468  0.28119  0.36599  1.0000
  C   C115      1.0  0.78281  0.39372  0.33302  1.0000
  C   C116      1.0  0.80268  0.41798  0.30005  1.0000
  C   C117      1.0  0.77841  0.39811  0.26709  1.0000
  C   C118      1.0  0.73428  0.35398  0.26709  1.0000
  C   C119      1.0  0.60628  0.21719  0.33302  1.0000
  C   C120      1.0  0.58202  0.19732  0.30005  1.0000
  C   C121      1.0  0.60189  0.22159  0.26709  1.0000
  C   C122      1.0  0.64602  0.26572  0.26709  1.0000
  C   C123      1.0  0.65481  0.25692  0.39896  1.0000
  C   C124      1.0  0.67908  0.27679  0.43193  1.0000
  C   C125      1.0  0.72321  0.32092  0.43193  1.0000
  C   C126      1.0  0.74308  0.34519  0.39896  1.0000
  H   H37       1.0  0.80101  0.40862  0.35775  1.0000
  O   O37       1.0  0.84240  0.45770  0.30005  1.0000
  O   O38       1.0  0.79630  0.41995  0.23741  1.0000
  H   H38       1.0  0.71608  0.33908  0.24236  1.0000
  H   H39       1.0  0.59138  0.19899  0.35775  1.0000
  O   O39       1.0  0.54230  0.15760  0.30005  1.0000
  O   O40       1.0  0.58005  0.20371  0.23741  1.0000
  H   H40       1.0  0.66092  0.28392  0.24236  1.0000
  H   H41       1.0  0.62171  0.22383  0.39896  1.0000
  O   O41       1.0  0.66120  0.25495  0.46160  1.0000
  O   O42       1.0  0.74505  0.33880  0.46160  1.0000
  H   H42       1.0  0.77617  0.37829  0.39896  1.0000
  C   C127      1.0  0.71610  0.67207  0.80005  1.0000
  C   C128      1.0  0.74041  0.65237  0.83302  1.0000
  C   C129      1.0  0.72071  0.67669  0.86598  1.0000
  C   C130      1.0  0.67669  0.72071  0.86598  1.0000
  C   C131      1.0  0.65237  0.74041  0.83302  1.0000
  C   C132      1.0  0.67207  0.71609  0.80005  1.0000
  C   C133      1.0  0.65698  0.74503  0.89894  1.0000
  C   C134      1.0  0.68130  0.72532  0.93191  1.0000
  C   C135      1.0  0.72532  0.68130  0.93191  1.0000
  C   C136      1.0  0.74503  0.65698  0.89894  1.0000
  C   C137      1.0  0.73580  0.64775  0.76709  1.0000
  C   C138      1.0  0.77982  0.60373  0.76709  1.0000
  C   C139      1.0  0.80414  0.58403  0.80005  1.0000
  C   C140      1.0  0.78444  0.60835  0.83302  1.0000
  C   C141      1.0  0.64776  0.73580  0.76709  1.0000
  C   C142      1.0  0.60374  0.77982  0.76709  1.0000
  C   C143      1.0  0.58403  0.80414  0.80005  1.0000
  C   C144      1.0  0.60835  0.78443  0.83302  1.0000
  H   H43       1.0  0.62397  0.77804  0.89894  1.0000
  O   O43       1.0  0.66357  0.74721  0.96157  1.0000
  O   O44       1.0  0.74721  0.66357  0.96157  1.0000
  H   H44       1.0  0.77804  0.62396  0.89894  1.0000
  H   H45       1.0  0.71756  0.66253  0.74237  1.0000
  O   O45       1.0  0.79756  0.58185  0.73742  1.0000
  O   O46       1.0  0.84376  0.54441  0.80005  1.0000
  H   H46       1.0  0.80267  0.59357  0.85774  1.0000
  H   H47       1.0  0.66253  0.71756  0.74237  1.0000
  O   O47       1.0  0.58185  0.79755  0.73742  1.0000
  O   O48       1.0  0.54441  0.84376  0.80005  1.0000
  H   H48       1.0  0.59357  0.80267  0.85774  1.0000
  Fe  Fe1       1.0  0.16605  0.49952  0.24995  1.0000
  Fe  Fe2       1.0  0.49953  0.16605  0.75005  1.0000
  Fe  Fe3       1.0  0.83395  0.50047  0.24995  1.0000
  Fe  Fe4       1.0  0.50048  0.83395  0.75005  1.0000
  Fe  Fe5       1.0  0.83395  0.50047  0.75005  1.0000
  Fe  Fe6       1.0  0.50048  0.83395  0.24995  1.0000
  Fe  Fe7       1.0  0.16605  0.49952  0.75005  1.0000
  Fe  Fe8       1.0  0.49953  0.16605  0.24995  1.0000
  C   C145      1.0  0.00010  0.56233  0.24994  1.0000
  C   C146      1.0  0.05415  0.53101  0.24994  1.0000
  C   C147      1.0  0.05381  0.46867  0.24994  1.0000
  C   C148      1.0  0.99990  0.43766  0.24994  1.0000
  C   C149      1.0  0.94585  0.46899  0.24994  1.0000
  C   C150      1.0  0.94619  0.53132  0.24994  1.0000
  H   H49       1.0  0.00010  0.60908  0.24994  1.0000
  O   O49       1.0  0.10289  0.55892  0.24994  1.0000
  O   O50       1.0  0.10225  0.44048  0.24994  1.0000
  H   H50       1.0  0.99990  0.39091  0.24994  1.0000
  O   O51       1.0  0.89711  0.44108  0.24994  1.0000
  O   O52       1.0  0.89775  0.55951  0.24994  1.0000
  C   C151      1.0  0.56234  0.00010  0.75006  1.0000
  C   C152      1.0  0.53133  0.94619  0.75006  1.0000
  C   C153      1.0  0.46899  0.94585  0.75006  1.0000
  C   C154      1.0  0.43767  0.99990  0.75006  1.0000
  C   C155      1.0  0.46868  0.05381  0.75006  1.0000
  C   C156      1.0  0.53101  0.05415  0.75006  1.0000
  H   H51       1.0  0.60909  0.00010  0.75006  1.0000
  O   O53       1.0  0.55952  0.89775  0.75006  1.0000
  O   O54       1.0  0.44108  0.89711  0.75006  1.0000
  H   H52       1.0  0.39092  0.99990  0.75006  1.0000
  O   O55       1.0  0.44049  0.10225  0.75007  1.0000
  O   O56       1.0  0.55892  0.10289  0.75006  1.0000
  C   C157      1.0  0.00010  0.56233  0.75006  1.0000
  C   C158      1.0  0.94619  0.53132  0.75006  1.0000
  C   C159      1.0  0.94585  0.46899  0.75006  1.0000
  C   C160      1.0  0.99990  0.43766  0.75006  1.0000
  C   C161      1.0  0.05381  0.46867  0.75006  1.0000
  C   C162      1.0  0.05415  0.53101  0.75006  1.0000
  H   H53       1.0  0.00010  0.60908  0.75006  1.0000
  O   O57       1.0  0.89775  0.55951  0.75006  1.0000
  O   O58       1.0  0.89711  0.44108  0.75006  1.0000
  H   H54       1.0  0.99990  0.39091  0.75006  1.0000
  O   O59       1.0  0.10225  0.44048  0.75006  1.0000
  O   O60       1.0  0.10289  0.55892  0.75006  1.0000
  C   C163      1.0  0.56234  0.00010  0.24994  1.0000
  C   C164      1.0  0.53133  0.94619  0.24994  1.0000
  C   C165      1.0  0.46899  0.94585  0.24994  1.0000
  C   C166      1.0  0.43767  0.99990  0.24994  1.0000
  C   C167      1.0  0.46868  0.05381  0.24994  1.0000
  C   C168      1.0  0.53101  0.05415  0.24994  1.0000
  H   H55       1.0  0.60909  0.00010  0.24994  1.0000
  O   O61       1.0  0.55952  0.89775  0.24994  1.0000
  O   O62       1.0  0.44108  0.89711  0.24994  1.0000
  H   H56       1.0  0.39092  0.99990  0.24994  1.0000
  O   O63       1.0  0.44049  0.10225  0.24993  1.0000
  O   O64       1.0  0.55892  0.10289  0.24994  1.0000
  Cu  Cu1       1.0  0.29461  0.29461  0.00010  1.0000
  Cu  Cu2       1.0  0.70312  0.29688  0.50000  1.0000
  Cu  Cu3       1.0  0.70539  0.70539  0.99990  1.0000
  Cu  Cu4       1.0  0.29687  0.70313  0.50000  1.0000
