data_image0
_chemical_formula_structural       C26H7O2H2O2HC4HO2HC26H7O2H2O2HC4HO2HC26H7O2H2O2HC4HO2HC26H7O2H2O2HC4HO2HC26H7O2H2O2HC4HO2HC26H7O2H2O2HC4HO2HC26H7O2H2O2HC4HO2HC26H7O2H2O2HC4HO2HFe8C6HO2HO2C6HO2HO2C6HO2HO2C6HO2HO2Cu4
_chemical_formula_sum              "C264 H104 O64 Fe8 Cu4"
_cell_length_a       30.3395
_cell_length_b       30.3395
_cell_length_c       56.086
_cell_angle_alpha    90
_cell_angle_beta     90
_cell_angle_gamma    90.028

_space_group_name_H-M_alt    "P 1"
_space_group_IT_number       1

loop_
  _space_group_symop_operation_xyz
  'x, y, z'

loop_
  _atom_site_type_symbol
  _atom_site_label
  _atom_site_symmetry_multiplicity
  _atom_site_fract_x
  _atom_site_fract_y
  _atom_site_fract_z
  _atom_site_occupancy
  C   C1        1.0  0.29912  0.26321  0.19081  1.0000
  C   C2        1.0  0.31523  0.24347  0.16708  1.0000
  C   C3        1.0  0.29547  0.25959  0.14334  1.0000
  C   C4        1.0  0.25960  0.29546  0.14334  1.0000
  C   C5        1.0  0.24347  0.31522  0.16708  1.0000
  C   C6        1.0  0.26323  0.29910  0.19082  1.0000
  C   C7        1.0  0.23983  0.31158  0.11960  1.0000
  C   C8        1.0  0.25594  0.29183  0.09587  1.0000
  C   C9        1.0  0.29183  0.25594  0.09586  1.0000
  C   C10       1.0  0.31159  0.23982  0.11960  1.0000
  C   C11       1.0  0.31888  0.24709  0.21455  1.0000
  C   C12       1.0  0.35475  0.21122  0.21456  1.0000
  C   C13       1.0  0.37088  0.19145  0.19082  1.0000
  C   C14       1.0  0.35112  0.20758  0.16708  1.0000
  C   C15       1.0  0.24710  0.31887  0.21456  1.0000
  C   C16       1.0  0.21123  0.35474  0.21455  1.0000
  C   C17       1.0  0.19147  0.37086  0.19081  1.0000
  C   C18       1.0  0.20758  0.35111  0.16708  1.0000
  C   C19       1.0  0.15558  0.40675  0.19082  1.0000
  C   C20       1.0  0.13945  0.42652  0.21456  1.0000
  C   C21       1.0  0.15921  0.41040  0.23830  1.0000
  C   C22       1.0  0.19510  0.37451  0.23829  1.0000
  C   C23       1.0  0.30796  0.23617  0.07212  1.0000
  C   C24       1.0  0.28820  0.25229  0.04838  1.0000
  C   C25       1.0  0.25231  0.28818  0.04839  1.0000
  C   C26       1.0  0.23618  0.30795  0.07213  1.0000
  H   H1        1.0  0.21326  0.33816  0.11961  1.0000
  H   H2        1.0  0.33815  0.21326  0.11960  1.0000
  H   H3        1.0  0.30693  0.26174  0.23213  1.0000
  H   H4        1.0  0.36305  0.19295  0.14951  1.0000
  H   H5        1.0  0.26173  0.30694  0.23213  1.0000
  H   H6        1.0  0.19295  0.36305  0.14951  1.0000
  H   H7        1.0  0.14095  0.41869  0.17324  1.0000
  O   O1        1.0  0.10450  0.46147  0.21456  1.0000
  O   O2        1.0  0.14351  0.42965  0.26142  1.0000
  H   H8        1.0  0.20973  0.36257  0.25587  1.0000
  H   H9        1.0  0.33452  0.20961  0.07212  1.0000
  O   O3        1.0  0.30390  0.23305  0.02526  1.0000
  O   O4        1.0  0.23306  0.30389  0.02527  1.0000
  H   H10       1.0  0.20962  0.33451  0.07213  1.0000
  C   C27       1.0  0.40677  0.15556  0.19081  1.0000
  C   C28       1.0  0.42653  0.13944  0.21455  1.0000
  C   C29       1.0  0.41040  0.15921  0.23829  1.0000
  C   C30       1.0  0.37451  0.19510  0.23830  1.0000
  H   H11       1.0  0.41870  0.14094  0.17324  1.0000
  O   O5        1.0  0.46148  0.10449  0.21455  1.0000
  O   O6        1.0  0.42965  0.14351  0.26142  1.0000
  H   H12       1.0  0.36258  0.20972  0.25587  1.0000
  C   C31       1.0  0.73633  0.29959  0.69081  1.0000
  C   C32       1.0  0.75607  0.31573  0.66708  1.0000
  C   C33       1.0  0.73992  0.29598  0.64334  1.0000
  C   C34       1.0  0.70403  0.26009  0.64333  1.0000
  C   C35       1.0  0.68427  0.24393  0.66708  1.0000
  C   C36       1.0  0.70043  0.26368  0.69082  1.0000
  C   C37       1.0  0.68788  0.24034  0.61960  1.0000
  C   C38       1.0  0.70761  0.25648  0.59586  1.0000
  C   C39       1.0  0.74352  0.29239  0.59586  1.0000
  C   C40       1.0  0.75967  0.31214  0.61960  1.0000
  C   C41       1.0  0.75248  0.31934  0.71455  1.0000
  C   C42       1.0  0.78837  0.35523  0.71456  1.0000
  C   C43       1.0  0.80813  0.37138  0.69082  1.0000
  C   C44       1.0  0.79198  0.35164  0.66708  1.0000
  C   C45       1.0  0.68067  0.24753  0.71456  1.0000
  C   C46       1.0  0.64478  0.21164  0.71455  1.0000
  C   C47       1.0  0.62863  0.19189  0.69081  1.0000
  C   C48       1.0  0.64837  0.20803  0.66708  1.0000
  C   C49       1.0  0.59272  0.15598  0.69082  1.0000
  C   C50       1.0  0.57297  0.13982  0.71456  1.0000
  C   C51       1.0  0.58912  0.15957  0.73830  1.0000
  C   C52       1.0  0.62503  0.19548  0.73829  1.0000
  C   C53       1.0  0.76328  0.30854  0.57212  1.0000
  C   C54       1.0  0.74713  0.28880  0.54838  1.0000
  C   C55       1.0  0.71122  0.25289  0.54838  1.0000
  C   C56       1.0  0.69146  0.23673  0.57212  1.0000
  H   H13       1.0  0.66129  0.21375  0.61960  1.0000
  H   H14       1.0  0.78624  0.33871  0.61960  1.0000
  H   H15       1.0  0.73785  0.30737  0.73213  1.0000
  H   H16       1.0  0.80659  0.36359  0.64951  1.0000
  H   H17       1.0  0.69263  0.26215  0.73213  1.0000
  H   H18       1.0  0.63641  0.19341  0.64951  1.0000
  H   H19       1.0  0.58077  0.14136  0.67324  1.0000
  O   O7        1.0  0.53800  0.10486  0.71456  1.0000
  O   O8        1.0  0.56988  0.14384  0.76142  1.0000
  H   H20       1.0  0.63698  0.21010  0.75587  1.0000
  H   H21       1.0  0.78985  0.33512  0.57212  1.0000
  O   O9        1.0  0.76636  0.30453  0.52526  1.0000
  O   O10       1.0  0.69549  0.23365  0.52526  1.0000
  H   H22       1.0  0.66489  0.21016  0.57212  1.0000
  C   C57       1.0  0.84404  0.40729  0.69081  1.0000
  C   C58       1.0  0.86019  0.42704  0.71455  1.0000
  C   C59       1.0  0.84043  0.41088  0.73829  1.0000
  C   C60       1.0  0.80452  0.37498  0.73830  1.0000
  H   H23       1.0  0.85865  0.41924  0.67324  1.0000
  O   O11       1.0  0.89515  0.46201  0.71455  1.0000
  O   O12       1.0  0.85616  0.43012  0.76142  1.0000
  H   H24       1.0  0.78991  0.36303  0.75587  1.0000
  C   C61       1.0  0.73679  0.70088  0.19081  1.0000
  C   C62       1.0  0.75653  0.68477  0.16708  1.0000
  C   C63       1.0  0.74041  0.70453  0.14334  1.0000
  C   C64       1.0  0.70454  0.74040  0.14334  1.0000
  C   C65       1.0  0.68478  0.75653  0.16708  1.0000
  C   C66       1.0  0.70090  0.73677  0.19082  1.0000
  C   C67       1.0  0.68842  0.76017  0.11960  1.0000
  C   C68       1.0  0.70817  0.74406  0.09587  1.0000
  C   C69       1.0  0.74406  0.70817  0.09586  1.0000
  C   C70       1.0  0.76018  0.68841  0.11960  1.0000
  C   C71       1.0  0.75291  0.68112  0.21455  1.0000
  C   C72       1.0  0.78878  0.64525  0.21456  1.0000
  C   C73       1.0  0.80855  0.62912  0.19082  1.0000
  C   C74       1.0  0.79242  0.64888  0.16708  1.0000
  C   C75       1.0  0.68113  0.75290  0.21456  1.0000
  C   C76       1.0  0.64526  0.78877  0.21455  1.0000
  C   C77       1.0  0.62914  0.80853  0.19081  1.0000
  C   C78       1.0  0.64889  0.79242  0.16708  1.0000
  C   C79       1.0  0.59325  0.84442  0.19082  1.0000
  C   C80       1.0  0.57348  0.86055  0.21456  1.0000
  C   C81       1.0  0.58960  0.84079  0.23830  1.0000
  C   C82       1.0  0.62549  0.80490  0.23829  1.0000
  C   C83       1.0  0.76383  0.69204  0.07212  1.0000
  C   C84       1.0  0.74771  0.71180  0.04838  1.0000
  C   C85       1.0  0.71182  0.74769  0.04839  1.0000
  C   C86       1.0  0.69205  0.76382  0.07213  1.0000
  H   H25       1.0  0.66184  0.78674  0.11960  1.0000
  H   H26       1.0  0.78674  0.66185  0.11960  1.0000
  H   H27       1.0  0.73826  0.69307  0.23213  1.0000
  H   H28       1.0  0.80705  0.63695  0.14951  1.0000
  H   H29       1.0  0.69306  0.73827  0.23213  1.0000
  H   H30       1.0  0.63695  0.80705  0.14951  1.0000
  H   H31       1.0  0.58131  0.85905  0.17324  1.0000
  O   O13       1.0  0.53853  0.89550  0.21456  1.0000
  O   O14       1.0  0.57035  0.85649  0.26142  1.0000
  H   H32       1.0  0.63743  0.79027  0.25587  1.0000
  H   H33       1.0  0.79039  0.66548  0.07212  1.0000
  O   O15       1.0  0.76695  0.69610  0.02526  1.0000
  O   O16       1.0  0.69611  0.76694  0.02526  1.0000
  H   H34       1.0  0.66549  0.79038  0.07212  1.0000
  C   C87       1.0  0.84444  0.59323  0.19081  1.0000
  C   C88       1.0  0.86056  0.57347  0.21455  1.0000
  C   C89       1.0  0.84079  0.58960  0.23829  1.0000
  C   C90       1.0  0.80490  0.62549  0.23830  1.0000
  H   H35       1.0  0.85906  0.58130  0.17324  1.0000
  O   O17       1.0  0.89551  0.53852  0.21455  1.0000
  O   O18       1.0  0.85649  0.57035  0.26142  1.0000
  H   H36       1.0  0.79028  0.63742  0.25587  1.0000
  C   C91       1.0  0.29959  0.73633  0.69081  1.0000
  C   C92       1.0  0.31573  0.75607  0.66708  1.0000
  C   C93       1.0  0.29598  0.73992  0.64334  1.0000
  C   C94       1.0  0.26009  0.70403  0.64333  1.0000
  C   C95       1.0  0.24393  0.68427  0.66708  1.0000
  C   C96       1.0  0.26368  0.70043  0.69082  1.0000
  C   C97       1.0  0.24034  0.68788  0.61959  1.0000
  C   C98       1.0  0.25648  0.70762  0.59586  1.0000
  C   C99       1.0  0.29239  0.74352  0.59586  1.0000
  C   C100      1.0  0.31214  0.75967  0.61960  1.0000
  C   C101      1.0  0.31934  0.75249  0.71455  1.0000
  C   C102      1.0  0.35523  0.78837  0.71456  1.0000
  C   C103      1.0  0.37138  0.80813  0.69082  1.0000
  C   C104      1.0  0.35164  0.79198  0.66708  1.0000
  C   C105      1.0  0.24753  0.68067  0.71456  1.0000
  C   C106      1.0  0.21164  0.64478  0.71455  1.0000
  C   C107      1.0  0.19189  0.62863  0.69081  1.0000
  C   C108      1.0  0.20803  0.64837  0.66708  1.0000
  C   C109      1.0  0.15598  0.59272  0.69081  1.0000
  C   C110      1.0  0.13982  0.57297  0.71456  1.0000
  C   C111      1.0  0.15957  0.58912  0.73830  1.0000
  C   C112      1.0  0.19548  0.62503  0.73829  1.0000
  C   C113      1.0  0.30854  0.76328  0.57212  1.0000
  C   C114      1.0  0.28879  0.74713  0.54838  1.0000
  C   C115      1.0  0.25289  0.71122  0.54838  1.0000
  C   C116      1.0  0.23673  0.69146  0.57212  1.0000
  H   H37       1.0  0.21375  0.66129  0.61960  1.0000
  H   H38       1.0  0.33871  0.78624  0.61960  1.0000
  H   H39       1.0  0.30737  0.73785  0.73213  1.0000
  H   H40       1.0  0.36359  0.80659  0.64951  1.0000
  H   H41       1.0  0.26215  0.69263  0.73213  1.0000
  H   H42       1.0  0.19341  0.63641  0.64951  1.0000
  H   H43       1.0  0.14136  0.58077  0.67324  1.0000
  O   O19       1.0  0.10486  0.53800  0.71456  1.0000
  O   O20       1.0  0.14384  0.56988  0.76142  1.0000
  H   H44       1.0  0.21010  0.63698  0.75587  1.0000
  H   H45       1.0  0.33512  0.78985  0.57212  1.0000
  O   O21       1.0  0.30453  0.76636  0.52525  1.0000
  O   O22       1.0  0.23365  0.69549  0.52526  1.0000
  H   H46       1.0  0.21016  0.66489  0.57212  1.0000
  C   C117      1.0  0.40729  0.84404  0.69081  1.0000
  C   C118      1.0  0.42704  0.86019  0.71455  1.0000
  C   C119      1.0  0.41088  0.84043  0.73829  1.0000
  C   C120      1.0  0.37498  0.80452  0.73830  1.0000
  H   H47       1.0  0.41924  0.85865  0.67324  1.0000
  O   O23       1.0  0.46201  0.89515  0.71455  1.0000
  O   O24       1.0  0.43012  0.85616  0.76142  1.0000
  H   H48       1.0  0.36303  0.78991  0.75587  1.0000
  C   C121      1.0  0.24392  0.68426  0.33292  1.0000
  C   C122      1.0  0.26367  0.70042  0.30919  1.0000
  C   C123      1.0  0.29957  0.73632  0.30919  1.0000
  C   C124      1.0  0.31573  0.75607  0.33292  1.0000
  C   C125      1.0  0.29598  0.73991  0.35666  1.0000
  C   C126      1.0  0.26007  0.70401  0.35666  1.0000
  C   C127      1.0  0.35163  0.79197  0.33292  1.0000
  C   C128      1.0  0.37137  0.80812  0.30919  1.0000
  C   C129      1.0  0.35522  0.78837  0.28545  1.0000
  C   C130      1.0  0.31932  0.75247  0.28545  1.0000
  C   C131      1.0  0.20802  0.64836  0.33292  1.0000
  C   C132      1.0  0.19187  0.62861  0.30919  1.0000
  C   C133      1.0  0.21162  0.64477  0.28545  1.0000
  C   C134      1.0  0.24752  0.68067  0.28545  1.0000
  C   C135      1.0  0.24032  0.68786  0.38041  1.0000
  C   C136      1.0  0.25648  0.70761  0.40414  1.0000
  C   C137      1.0  0.29238  0.74351  0.40414  1.0000
  C   C138      1.0  0.31213  0.75966  0.38041  1.0000
  C   C139      1.0  0.30853  0.76326  0.42788  1.0000
  C   C140      1.0  0.28878  0.74711  0.45163  1.0000
  C   C141      1.0  0.25288  0.71121  0.45163  1.0000
  C   C142      1.0  0.23673  0.69146  0.42788  1.0000
  C   C143      1.0  0.37497  0.80452  0.26170  1.0000
  C   C144      1.0  0.41087  0.84042  0.26170  1.0000
  C   C145      1.0  0.42703  0.86017  0.28545  1.0000
  C   C146      1.0  0.40728  0.84402  0.30919  1.0000
  H   H49       1.0  0.36358  0.80659  0.35051  1.0000
  H   H50       1.0  0.30737  0.73785  0.26788  1.0000
  H   H51       1.0  0.19340  0.63641  0.35051  1.0000
  H   H52       1.0  0.26214  0.69262  0.26788  1.0000
  H   H53       1.0  0.21375  0.66129  0.38041  1.0000
  H   H54       1.0  0.33870  0.78624  0.38041  1.0000
  H   H55       1.0  0.33510  0.78984  0.42788  1.0000
  O   O25       1.0  0.30451  0.76635  0.47475  1.0000
  O   O26       1.0  0.23364  0.69548  0.47475  1.0000
  H   H56       1.0  0.21015  0.66488  0.42788  1.0000
  H   H57       1.0  0.36302  0.78990  0.24413  1.0000
  O   O27       1.0  0.43011  0.85615  0.23858  1.0000
  O   O28       1.0  0.46199  0.89514  0.28545  1.0000
  H   H58       1.0  0.41923  0.85864  0.32676  1.0000
  C   C147      1.0  0.19547  0.62502  0.26170  1.0000
  C   C148      1.0  0.15957  0.58911  0.26170  1.0000
  C   C149      1.0  0.13982  0.57296  0.28545  1.0000
  C   C150      1.0  0.15597  0.59271  0.30919  1.0000
  H   H59       1.0  0.21009  0.63697  0.24413  1.0000
  O   O29       1.0  0.14384  0.56988  0.23858  1.0000
  O   O30       1.0  0.10485  0.53800  0.28545  1.0000
  H   H60       1.0  0.14135  0.58076  0.32676  1.0000
  C   C151      1.0  0.29912  0.26321  0.80919  1.0000
  C   C152      1.0  0.31523  0.24347  0.83292  1.0000
  C   C153      1.0  0.29547  0.25959  0.85666  1.0000
  C   C154      1.0  0.25960  0.29546  0.85666  1.0000
  C   C155      1.0  0.24347  0.31522  0.83292  1.0000
  C   C156      1.0  0.26323  0.29910  0.80918  1.0000
  C   C157      1.0  0.23983  0.31158  0.88040  1.0000
  C   C158      1.0  0.25594  0.29183  0.90413  1.0000
  C   C159      1.0  0.29183  0.25594  0.90414  1.0000
  C   C160      1.0  0.31159  0.23982  0.88040  1.0000
  C   C161      1.0  0.31888  0.24709  0.78545  1.0000
  C   C162      1.0  0.35475  0.21122  0.78544  1.0000
  C   C163      1.0  0.37088  0.19145  0.80918  1.0000
  C   C164      1.0  0.35112  0.20758  0.83292  1.0000
  C   C165      1.0  0.24710  0.31887  0.78544  1.0000
  C   C166      1.0  0.21123  0.35474  0.78545  1.0000
  C   C167      1.0  0.19147  0.37086  0.80919  1.0000
  C   C168      1.0  0.20758  0.35111  0.83292  1.0000
  C   C169      1.0  0.15558  0.40675  0.80918  1.0000
  C   C170      1.0  0.13945  0.42652  0.78544  1.0000
  C   C171      1.0  0.15921  0.41040  0.76170  1.0000
  C   C172      1.0  0.19510  0.37451  0.76171  1.0000
  C   C173      1.0  0.30796  0.23617  0.92788  1.0000
  C   C174      1.0  0.28820  0.25229  0.95162  1.0000
  C   C175      1.0  0.25231  0.28818  0.95161  1.0000
  C   C176      1.0  0.23618  0.30795  0.92787  1.0000
  H   H61       1.0  0.21326  0.33816  0.88039  1.0000
  H   H62       1.0  0.33815  0.21326  0.88040  1.0000
  H   H63       1.0  0.30693  0.26174  0.76787  1.0000
  H   H64       1.0  0.36305  0.19295  0.85049  1.0000
  H   H65       1.0  0.26173  0.30694  0.76787  1.0000
  H   H66       1.0  0.19295  0.36305  0.85049  1.0000
  H   H67       1.0  0.14095  0.41869  0.82676  1.0000
  O   O31       1.0  0.10450  0.46147  0.78544  1.0000
  O   O32       1.0  0.14351  0.42965  0.73858  1.0000
  H   H68       1.0  0.20973  0.36257  0.74413  1.0000
  H   H69       1.0  0.33452  0.20961  0.92787  1.0000
  O   O33       1.0  0.30390  0.23305  0.97474  1.0000
  O   O34       1.0  0.23306  0.30389  0.97473  1.0000
  H   H70       1.0  0.20962  0.33451  0.92787  1.0000
  C   C177      1.0  0.40677  0.15556  0.80919  1.0000
  C   C178      1.0  0.42653  0.13944  0.78545  1.0000
  C   C179      1.0  0.41040  0.15921  0.76171  1.0000
  C   C180      1.0  0.37451  0.19510  0.76170  1.0000
  H   H71       1.0  0.41870  0.14094  0.82676  1.0000
  O   O35       1.0  0.46148  0.10449  0.78545  1.0000
  O   O36       1.0  0.42965  0.14351  0.73858  1.0000
  H   H72       1.0  0.36258  0.20972  0.74413  1.0000
  C   C181      1.0  0.68426  0.24392  0.33292  1.0000
  C   C182      1.0  0.70042  0.26367  0.30919  1.0000
  C   C183      1.0  0.73632  0.29957  0.30919  1.0000
  C   C184      1.0  0.75607  0.31573  0.33292  1.0000
  C   C185      1.0  0.73991  0.29598  0.35666  1.0000
  C   C186      1.0  0.70401  0.26007  0.35666  1.0000
  C   C187      1.0  0.79197  0.35163  0.33292  1.0000
  C   C188      1.0  0.80812  0.37137  0.30919  1.0000
  C   C189      1.0  0.78837  0.35522  0.28545  1.0000
  C   C190      1.0  0.75247  0.31932  0.28545  1.0000
  C   C191      1.0  0.64836  0.20802  0.33292  1.0000
  C   C192      1.0  0.62861  0.19187  0.30919  1.0000
  C   C193      1.0  0.64477  0.21162  0.28545  1.0000
  C   C194      1.0  0.68067  0.24752  0.28545  1.0000
  C   C195      1.0  0.68786  0.24032  0.38041  1.0000
  C   C196      1.0  0.70761  0.25648  0.40414  1.0000
  C   C197      1.0  0.74351  0.29238  0.40414  1.0000
  C   C198      1.0  0.75966  0.31213  0.38041  1.0000
  C   C199      1.0  0.76326  0.30853  0.42788  1.0000
  C   C200      1.0  0.74711  0.28878  0.45163  1.0000
  C   C201      1.0  0.71121  0.25288  0.45163  1.0000
  C   C202      1.0  0.69146  0.23673  0.42788  1.0000
  C   C203      1.0  0.80452  0.37497  0.26170  1.0000
  C   C204      1.0  0.84042  0.41087  0.26170  1.0000
  C   C205      1.0  0.86017  0.42703  0.28545  1.0000
  C   C206      1.0  0.84402  0.40728  0.30919  1.0000
  H   H73       1.0  0.80659  0.36358  0.35050  1.0000
  H   H74       1.0  0.73785  0.30737  0.26788  1.0000
  H   H75       1.0  0.63641  0.19340  0.35050  1.0000
  H   H76       1.0  0.69262  0.26214  0.26788  1.0000
  H   H77       1.0  0.66129  0.21375  0.38041  1.0000
  H   H78       1.0  0.78624  0.33870  0.38041  1.0000
  H   H79       1.0  0.78984  0.33510  0.42788  1.0000
  O   O37       1.0  0.76635  0.30451  0.47475  1.0000
  O   O38       1.0  0.69548  0.23364  0.47475  1.0000
  H   H80       1.0  0.66488  0.21015  0.42788  1.0000
  H   H81       1.0  0.78990  0.36302  0.24413  1.0000
  O   O39       1.0  0.85615  0.43011  0.23858  1.0000
  O   O40       1.0  0.89514  0.46199  0.28545  1.0000
  H   H82       1.0  0.85864  0.41923  0.32676  1.0000
  C   C207      1.0  0.62502  0.19547  0.26170  1.0000
  C   C208      1.0  0.58911  0.15957  0.26170  1.0000
  C   C209      1.0  0.57296  0.13982  0.28545  1.0000
  C   C210      1.0  0.59271  0.15597  0.30919  1.0000
  H   H83       1.0  0.63697  0.21009  0.24413  1.0000
  O   O41       1.0  0.56988  0.14384  0.23858  1.0000
  O   O42       1.0  0.53800  0.10485  0.28545  1.0000
  H   H84       1.0  0.58076  0.14135  0.32676  1.0000
  C   C211      1.0  0.73679  0.70088  0.80919  1.0000
  C   C212      1.0  0.75653  0.68477  0.83292  1.0000
  C   C213      1.0  0.74041  0.70453  0.85666  1.0000
  C   C214      1.0  0.70454  0.74040  0.85666  1.0000
  C   C215      1.0  0.68478  0.75653  0.83292  1.0000
  C   C216      1.0  0.70090  0.73677  0.80918  1.0000
  C   C217      1.0  0.68842  0.76017  0.88040  1.0000
  C   C218      1.0  0.70817  0.74406  0.90413  1.0000
  C   C219      1.0  0.74406  0.70817  0.90414  1.0000
  C   C220      1.0  0.76018  0.68841  0.88040  1.0000
  C   C221      1.0  0.75291  0.68112  0.78545  1.0000
  C   C222      1.0  0.78878  0.64525  0.78544  1.0000
  C   C223      1.0  0.80855  0.62912  0.80918  1.0000
  C   C224      1.0  0.79242  0.64888  0.83292  1.0000
  C   C225      1.0  0.68113  0.75290  0.78544  1.0000
  C   C226      1.0  0.64526  0.78877  0.78545  1.0000
  C   C227      1.0  0.62914  0.80853  0.80919  1.0000
  C   C228      1.0  0.64889  0.79242  0.83292  1.0000
  C   C229      1.0  0.59325  0.84442  0.80918  1.0000
  C   C230      1.0  0.57348  0.86055  0.78544  1.0000
  C   C231      1.0  0.58960  0.84079  0.76170  1.0000
  C   C232      1.0  0.62549  0.80490  0.76171  1.0000
  C   C233      1.0  0.76383  0.69204  0.92788  1.0000
  C   C234      1.0  0.74771  0.71180  0.95162  1.0000
  C   C235      1.0  0.71182  0.74769  0.95161  1.0000
  C   C236      1.0  0.69205  0.76382  0.92787  1.0000
  H   H85       1.0  0.66184  0.78674  0.88040  1.0000
  H   H86       1.0  0.78674  0.66185  0.88040  1.0000
  H   H87       1.0  0.73826  0.69307  0.76787  1.0000
  H   H88       1.0  0.80705  0.63695  0.85049  1.0000
  H   H89       1.0  0.69306  0.73827  0.76787  1.0000
  H   H90       1.0  0.63695  0.80705  0.85049  1.0000
  H   H91       1.0  0.58131  0.85905  0.82676  1.0000
  O   O43       1.0  0.53853  0.89550  0.78544  1.0000
  O   O44       1.0  0.57035  0.85649  0.73858  1.0000
  H   H92       1.0  0.63743  0.79027  0.74413  1.0000
  H   H93       1.0  0.79039  0.66548  0.92788  1.0000
  O   O45       1.0  0.76695  0.69610  0.97474  1.0000
  O   O46       1.0  0.69611  0.76694  0.97474  1.0000
  H   H94       1.0  0.66549  0.79038  0.92788  1.0000
  C   C237      1.0  0.84444  0.59323  0.80919  1.0000
  C   C238      1.0  0.86056  0.57347  0.78545  1.0000
  C   C239      1.0  0.84079  0.58960  0.76171  1.0000
  C   C240      1.0  0.80490  0.62549  0.76170  1.0000
  H   H95       1.0  0.85906  0.58130  0.82676  1.0000
  O   O47       1.0  0.89551  0.53852  0.78545  1.0000
  O   O48       1.0  0.85649  0.57035  0.73858  1.0000
  H   H96       1.0  0.79028  0.63742  0.74413  1.0000
  Fe  Fe1       1.0  0.12276  0.49989  0.24999  1.0000
  Fe  Fe2       1.0  0.49989  0.12276  0.75001  1.0000
  Fe  Fe3       1.0  0.87724  0.50011  0.24999  1.0000
  Fe  Fe4       1.0  0.50011  0.87724  0.75001  1.0000
  Fe  Fe5       1.0  0.87724  0.50011  0.75001  1.0000
  Fe  Fe6       1.0  0.50011  0.87724  0.24999  1.0000
  Fe  Fe7       1.0  0.12276  0.49989  0.75001  1.0000
  Fe  Fe8       1.0  0.49989  0.12276  0.24999  1.0000
  C   C241      1.0  0.00010  0.54614  0.24999  1.0000
  C   C242      1.0  0.04000  0.52303  0.24999  1.0000
  C   C243      1.0  0.03993  0.47689  0.24999  1.0000
  C   C244      1.0  0.99990  0.45386  0.24999  1.0000
  C   C245      1.0  0.96000  0.47697  0.24999  1.0000
  C   C246      1.0  0.96007  0.52311  0.24999  1.0000
  H   H97       1.0  0.00010  0.58075  0.24999  1.0000
  O   O49       1.0  0.07599  0.54376  0.24999  1.0000
  O   O50       1.0  0.07586  0.45609  0.24999  1.0000
  H   H98       1.0  0.99990  0.41925  0.24999  1.0000
  O   O51       1.0  0.92401  0.45624  0.24999  1.0000
  O   O52       1.0  0.92414  0.54391  0.24999  1.0000
  C   C247      1.0  0.54614  0.00010  0.75001  1.0000
  C   C248      1.0  0.52311  0.96007  0.75001  1.0000
  C   C249      1.0  0.47697  0.96000  0.75001  1.0000
  C   C250      1.0  0.45386  0.99990  0.75001  1.0000
  C   C251      1.0  0.47689  0.03993  0.75001  1.0000
  C   C252      1.0  0.52303  0.04000  0.75001  1.0000
  H   H99       1.0  0.58075  0.00010  0.75001  1.0000
  O   O53       1.0  0.54391  0.92414  0.75001  1.0000
  O   O54       1.0  0.45624  0.92401  0.75001  1.0000
  H   H100      1.0  0.41925  0.99990  0.75001  1.0000
  O   O55       1.0  0.45609  0.07586  0.75001  1.0000
  O   O56       1.0  0.54376  0.07599  0.75001  1.0000
  C   C253      1.0  0.00010  0.54614  0.75001  1.0000
  C   C254      1.0  0.96007  0.52311  0.75001  1.0000
  C   C255      1.0  0.96000  0.47697  0.75001  1.0000
  C   C256      1.0  0.99990  0.45386  0.75001  1.0000
  C   C257      1.0  0.03993  0.47689  0.75001  1.0000
  C   C258      1.0  0.04000  0.52303  0.75001  1.0000
  H   H101      1.0  0.00010  0.58075  0.75001  1.0000
  O   O57       1.0  0.92414  0.54391  0.75001  1.0000
  O   O58       1.0  0.92401  0.45624  0.75001  1.0000
  H   H102      1.0  0.99990  0.41925  0.75001  1.0000
  O   O59       1.0  0.07586  0.45609  0.75001  1.0000
  O   O60       1.0  0.07599  0.54376  0.75001  1.0000
  C   C259      1.0  0.54614  0.00010  0.24999  1.0000
  C   C260      1.0  0.52311  0.96007  0.24999  1.0000
  C   C261      1.0  0.47697  0.96000  0.24999  1.0000
  C   C262      1.0  0.45386  0.99990  0.24999  1.0000
  C   C263      1.0  0.47689  0.03993  0.24999  1.0000
  C   C264      1.0  0.52303  0.04000  0.24999  1.0000
  H   H103      1.0  0.58075  0.00010  0.24999  1.0000
  O   O61       1.0  0.54391  0.92414  0.24999  1.0000
  O   O62       1.0  0.45624  0.92401  0.24999  1.0000
  H   H104      1.0  0.41925  0.99990  0.24999  1.0000
  O   O63       1.0  0.45609  0.07586  0.24999  1.0000
  O   O64       1.0  0.54376  0.07599  0.24999  1.0000
  Cu  Cu1       1.0  0.26847  0.26847  0.99990  1.0000
  Cu  Cu2       1.0  0.73092  0.26908  0.50000  1.0000
  Cu  Cu3       1.0  0.73153  0.73153  0.00010  1.0000
  Cu  Cu4       1.0  0.26908  0.73092  0.50000  1.0000
