data_image0
_chemical_formula_structural       Fe8C26H7O2H2O2HC4HO2HC26H7O2H2O2HC4HO2HC26H7O2H2O2HC4HO2HC26H7O2H2O2HC4HO2HCu2C6HO2HO2C6HO2HO2C6HO2HO2C6HO2HO2C6HO2HO2C6HO2HO2C6HO2HO2C6HO2HO2C6O2HO2HCuC6O2HO2HCuC6O2HO2HCuC6O2HO2HCuC6O2HO2HCuC6O2HO2HCuC6O2HO2HCuC6O2HO2HCu
_chemical_formula_sum              "Fe8 C216 H80 O88 Cu10"
_cell_length_a       84.6049
_cell_length_b       35.5868
_cell_length_c       20.4732
_cell_angle_alpha    90.0046
_cell_angle_beta     90
_cell_angle_gamma    90

_space_group_name_H-M_alt    "P 1"
_space_group_IT_number       1

loop_
  _space_group_symop_operation_xyz
  'x, y, z'

loop_
  _atom_site_type_symbol
  _atom_site_label
  _atom_site_symmetry_multiplicity
  _atom_site_fract_x
  _atom_site_fract_y
  _atom_site_fract_z
  _atom_site_occupancy
  Fe  Fe1       1.0  0.28413  0.07423  0.13079  1.0000
  Fe  Fe2       1.0  0.21587  0.92578  0.63077  1.0000
  Fe  Fe3       1.0  0.28413  0.92577  0.86921  1.0000
  Fe  Fe4       1.0  0.21587  0.07422  0.36923  1.0000
  Fe  Fe5       1.0  0.71587  0.92577  0.86921  1.0000
  Fe  Fe6       1.0  0.78412  0.07423  0.36923  1.0000
  Fe  Fe7       1.0  0.71587  0.07423  0.13079  1.0000
  Fe  Fe8       1.0  0.78412  0.92578  0.63077  1.0000
  C   C1        1.0  0.37353  0.52132  0.99355  1.0000
  C   C2        1.0  0.38929  0.54261  0.98701  1.0000
  C   C3        1.0  0.40505  0.52131  0.99356  1.0000
  C   C4        1.0  0.40506  0.47871  0.00664  1.0000
  C   C5        1.0  0.38929  0.45739  0.01319  1.0000
  C   C6        1.0  0.37353  0.47870  0.00664  1.0000
  C   C7        1.0  0.42082  0.45740  0.01319  1.0000
  C   C8        1.0  0.43658  0.47869  0.00665  1.0000
  C   C9        1.0  0.43658  0.52131  0.99355  1.0000
  C   C10       1.0  0.42082  0.54262  0.98701  1.0000
  C   C11       1.0  0.35777  0.54263  0.98701  1.0000
  C   C12       1.0  0.35776  0.58523  0.97392  1.0000
  C   C13       1.0  0.37353  0.60654  0.96737  1.0000
  C   C14       1.0  0.38929  0.58523  0.97392  1.0000
  C   C15       1.0  0.35776  0.45739  0.01319  1.0000
  C   C16       1.0  0.35777  0.41479  0.02628  1.0000
  C   C17       1.0  0.37353  0.39348  0.03282  1.0000
  C   C18       1.0  0.38929  0.41477  0.02628  1.0000
  C   C19       1.0  0.37353  0.35086  0.04591  1.0000
  C   C20       1.0  0.35776  0.32955  0.05246  1.0000
  C   C21       1.0  0.34200  0.35085  0.04592  1.0000
  C   C22       1.0  0.34200  0.39347  0.03282  1.0000
  C   C23       1.0  0.45235  0.54263  0.98701  1.0000
  C   C24       1.0  0.46811  0.52132  0.99355  1.0000
  C   C25       1.0  0.46811  0.47870  0.00664  1.0000
  C   C26       1.0  0.45234  0.45738  0.01319  1.0000
  H   H1        1.0  0.42082  0.42584  0.02288  1.0000
  H   H2        1.0  0.42082  0.57416  0.97732  1.0000
  H   H3        1.0  0.34609  0.52684  0.99186  1.0000
  H   H4        1.0  0.40096  0.60100  0.96907  1.0000
  H   H5        1.0  0.34609  0.47316  0.00835  1.0000
  H   H6        1.0  0.40096  0.39900  0.03113  1.0000
  H   H7        1.0  0.38520  0.33509  0.05076  1.0000
  O   O1        1.0  0.35776  0.28804  0.06521  1.0000
  O   O2        1.0  0.32665  0.33010  0.05229  1.0000
  H   H8        1.0  0.33033  0.40925  0.02798  1.0000
  H   H9        1.0  0.45235  0.57417  0.97732  1.0000
  O   O3        1.0  0.48347  0.54207  0.98718  1.0000
  O   O4        1.0  0.48346  0.45795  0.01302  1.0000
  H   H10       1.0  0.45235  0.42585  0.02288  1.0000
  C   C27       1.0  0.37353  0.64916  0.95428  1.0000
  C   C28       1.0  0.35777  0.67047  0.94773  1.0000
  C   C29       1.0  0.34200  0.64915  0.95428  1.0000
  C   C30       1.0  0.34200  0.60653  0.96737  1.0000
  H   H11       1.0  0.38520  0.66493  0.94944  1.0000
  O   O5        1.0  0.35777  0.71197  0.93498  1.0000
  O   O6        1.0  0.32665  0.66991  0.94791  1.0000
  H   H12       1.0  0.33033  0.59077  0.97222  1.0000
  C   C31       1.0  0.11071  0.45738  0.48691  1.0000
  C   C32       1.0  0.12647  0.47868  0.49345  1.0000
  C   C33       1.0  0.12647  0.52130  0.50654  1.0000
  C   C34       1.0  0.11071  0.54261  0.51309  1.0000
  C   C35       1.0  0.09495  0.52130  0.50654  1.0000
  C   C36       1.0  0.09495  0.47868  0.49346  1.0000
  C   C37       1.0  0.11071  0.58522  0.52618  1.0000
  C   C38       1.0  0.12647  0.60653  0.53272  1.0000
  C   C39       1.0  0.14224  0.58522  0.52618  1.0000
  C   C40       1.0  0.14224  0.54261  0.51309  1.0000
  C   C41       1.0  0.11071  0.41476  0.47382  1.0000
  C   C42       1.0  0.12647  0.39345  0.46728  1.0000
  C   C43       1.0  0.14224  0.41476  0.47382  1.0000
  C   C44       1.0  0.14224  0.45738  0.48691  1.0000
  C   C45       1.0  0.07918  0.45738  0.48691  1.0000
  C   C46       1.0  0.06342  0.47869  0.49346  1.0000
  C   C47       1.0  0.06342  0.52130  0.50654  1.0000
  C   C48       1.0  0.07918  0.54261  0.51309  1.0000
  C   C49       1.0  0.04766  0.54261  0.51309  1.0000
  C   C50       1.0  0.03189  0.52130  0.50654  1.0000
  C   C51       1.0  0.03189  0.47869  0.49346  1.0000
  C   C52       1.0  0.04766  0.45738  0.48691  1.0000
  C   C53       1.0  0.15800  0.60653  0.53272  1.0000
  C   C54       1.0  0.15800  0.64914  0.54581  1.0000
  C   C55       1.0  0.14224  0.67045  0.55235  1.0000
  C   C56       1.0  0.12647  0.64914  0.54581  1.0000
  H   H13       1.0  0.09904  0.60100  0.53102  1.0000
  H   H14       1.0  0.15390  0.52683  0.50824  1.0000
  H   H15       1.0  0.09904  0.39899  0.46898  1.0000
  H   H16       1.0  0.15390  0.47315  0.49176  1.0000
  H   H17       1.0  0.07918  0.42583  0.47722  1.0000
  H   H18       1.0  0.07918  0.57415  0.52278  1.0000
  H   H19       1.0  0.04766  0.57415  0.52278  1.0000
  O   O7        1.0  0.01653  0.54205  0.51292  1.0000
  O   O8        1.0  0.01653  0.45793  0.48708  1.0000
  H   H20       1.0  0.04766  0.42583  0.47722  1.0000
  H   H21       1.0  0.16967  0.59076  0.52788  1.0000
  O   O9        1.0  0.17336  0.66990  0.55218  1.0000
  O   O10       1.0  0.14224  0.71196  0.56510  1.0000
  H   H22       1.0  0.11480  0.66492  0.55065  1.0000
  C   C57       1.0  0.15800  0.39345  0.46728  1.0000
  C   C58       1.0  0.15800  0.35084  0.45419  1.0000
  C   C59       1.0  0.14224  0.32953  0.44764  1.0000
  C   C60       1.0  0.12647  0.35084  0.45419  1.0000
  H   H23       1.0  0.16967  0.40923  0.47212  1.0000
  O   O11       1.0  0.17336  0.33009  0.44781  1.0000
  O   O12       1.0  0.14224  0.28802  0.43490  1.0000
  H   H24       1.0  0.11480  0.33507  0.44934  1.0000
  C   C61       1.0  0.61071  0.45738  0.01319  1.0000
  C   C62       1.0  0.62647  0.47869  0.00665  1.0000
  C   C63       1.0  0.62647  0.52130  0.99356  1.0000
  C   C64       1.0  0.61071  0.54261  0.98701  1.0000
  C   C65       1.0  0.59495  0.52130  0.99356  1.0000
  C   C66       1.0  0.59495  0.47869  0.00665  1.0000
  C   C67       1.0  0.61071  0.58522  0.97392  1.0000
  C   C68       1.0  0.62647  0.60653  0.96738  1.0000
  C   C69       1.0  0.64224  0.58522  0.97392  1.0000
  C   C70       1.0  0.64224  0.54261  0.98701  1.0000
  C   C71       1.0  0.61071  0.41477  0.02628  1.0000
  C   C72       1.0  0.62647  0.39346  0.03283  1.0000
  C   C73       1.0  0.64224  0.41477  0.02628  1.0000
  C   C74       1.0  0.64224  0.45738  0.01319  1.0000
  C   C75       1.0  0.57918  0.45738  0.01319  1.0000
  C   C76       1.0  0.56342  0.47869  0.00665  1.0000
  C   C77       1.0  0.56342  0.52130  0.99356  1.0000
  C   C78       1.0  0.57918  0.54261  0.98701  1.0000
  C   C79       1.0  0.54765  0.54261  0.98701  1.0000
  C   C80       1.0  0.53189  0.52130  0.99356  1.0000
  C   C81       1.0  0.53189  0.47869  0.00665  1.0000
  C   C82       1.0  0.54765  0.45738  0.01319  1.0000
  C   C83       1.0  0.65800  0.60653  0.96738  1.0000
  C   C84       1.0  0.65800  0.64914  0.95429  1.0000
  C   C85       1.0  0.64224  0.67045  0.94774  1.0000
  C   C86       1.0  0.62647  0.64914  0.95429  1.0000
  H   H25       1.0  0.59904  0.60099  0.96908  1.0000
  H   H26       1.0  0.65390  0.52683  0.99186  1.0000
  H   H27       1.0  0.59903  0.39899  0.03113  1.0000
  H   H28       1.0  0.65390  0.47315  0.00835  1.0000
  H   H29       1.0  0.57918  0.42583  0.02288  1.0000
  H   H30       1.0  0.57918  0.57415  0.97732  1.0000
  H   H31       1.0  0.54765  0.57415  0.97732  1.0000
  O   O13       1.0  0.51653  0.54205  0.98718  1.0000
  O   O14       1.0  0.51653  0.45793  0.01302  1.0000
  H   H32       1.0  0.54765  0.42583  0.02288  1.0000
  H   H33       1.0  0.66967  0.59075  0.97222  1.0000
  O   O15       1.0  0.67336  0.66989  0.94791  1.0000
  O   O16       1.0  0.64224  0.71195  0.93499  1.0000
  H   H34       1.0  0.61480  0.66491  0.94944  1.0000
  C   C87       1.0  0.65800  0.39346  0.03283  1.0000
  C   C88       1.0  0.65800  0.35084  0.04592  1.0000
  C   C89       1.0  0.64224  0.32954  0.05246  1.0000
  C   C90       1.0  0.62647  0.35085  0.04592  1.0000
  H   H35       1.0  0.66967  0.40923  0.02798  1.0000
  O   O17       1.0  0.67336  0.33009  0.05229  1.0000
  O   O18       1.0  0.64224  0.28803  0.06521  1.0000
  H   H36       1.0  0.61480  0.33507  0.05076  1.0000
  C   C91       1.0  0.87353  0.52132  0.50655  1.0000
  C   C92       1.0  0.88929  0.54261  0.51309  1.0000
  C   C93       1.0  0.90505  0.52131  0.50654  1.0000
  C   C94       1.0  0.90506  0.47871  0.49346  1.0000
  C   C95       1.0  0.88929  0.45739  0.48692  1.0000
  C   C96       1.0  0.87353  0.47870  0.49346  1.0000
  C   C97       1.0  0.92082  0.45740  0.48692  1.0000
  C   C98       1.0  0.93658  0.47869  0.49346  1.0000
  C   C99       1.0  0.93658  0.52131  0.50655  1.0000
  C   C100      1.0  0.92082  0.54262  0.51309  1.0000
  C   C101      1.0  0.85777  0.54263  0.51309  1.0000
  C   C102      1.0  0.85776  0.58523  0.52618  1.0000
  C   C103      1.0  0.87353  0.60654  0.53272  1.0000
  C   C104      1.0  0.88929  0.58524  0.52618  1.0000
  C   C105      1.0  0.85776  0.45738  0.48691  1.0000
  C   C106      1.0  0.85777  0.41479  0.47383  1.0000
  C   C107      1.0  0.87353  0.39348  0.46729  1.0000
  C   C108      1.0  0.88929  0.41477  0.47382  1.0000
  C   C109      1.0  0.87353  0.35086  0.45420  1.0000
  C   C110      1.0  0.85776  0.32954  0.44765  1.0000
  C   C111      1.0  0.84200  0.35085  0.45419  1.0000
  C   C112      1.0  0.84200  0.39347  0.46728  1.0000
  C   C113      1.0  0.95235  0.54263  0.51309  1.0000
  C   C114      1.0  0.96811  0.52132  0.50655  1.0000
  C   C115      1.0  0.96811  0.47870  0.49346  1.0000
  C   C116      1.0  0.95234  0.45738  0.48691  1.0000
  H   H37       1.0  0.92082  0.42584  0.47722  1.0000
  H   H38       1.0  0.92082  0.57416  0.52278  1.0000
  H   H39       1.0  0.84609  0.52684  0.50824  1.0000
  H   H40       1.0  0.90096  0.60100  0.53102  1.0000
  H   H41       1.0  0.84609  0.47316  0.49176  1.0000
  H   H42       1.0  0.90096  0.39900  0.46898  1.0000
  H   H43       1.0  0.88520  0.33508  0.44935  1.0000
  O   O19       1.0  0.85776  0.28803  0.43490  1.0000
  O   O20       1.0  0.82665  0.33010  0.44782  1.0000
  H   H44       1.0  0.83033  0.40924  0.47213  1.0000
  H   H45       1.0  0.95235  0.57417  0.52278  1.0000
  O   O21       1.0  0.98347  0.54207  0.51292  1.0000
  O   O22       1.0  0.98346  0.45794  0.48709  1.0000
  H   H46       1.0  0.95235  0.42584  0.47723  1.0000
  C   C117      1.0  0.87353  0.64917  0.54581  1.0000
  C   C118      1.0  0.85777  0.67047  0.55236  1.0000
  C   C119      1.0  0.84200  0.64916  0.54581  1.0000
  C   C120      1.0  0.84200  0.60654  0.53272  1.0000
  H   H47       1.0  0.88520  0.66493  0.55066  1.0000
  O   O23       1.0  0.85777  0.71198  0.56511  1.0000
  O   O24       1.0  0.82665  0.66991  0.55219  1.0000
  H   H48       1.0  0.83033  0.59077  0.52788  1.0000
  Cu  Cu1       1.0  0.50000  0.50000  0.00010  1.0000
  Cu  Cu2       1.0  0.00010  0.50000  0.50000  1.0000
  C   C121      1.0  0.24067  0.06305  0.19563  1.0000
  C   C122      1.0  0.23365  0.06742  0.25709  1.0000
  C   C123      1.0  0.24298  0.07616  0.31147  1.0000
  C   C124      1.0  0.25934  0.08053  0.30439  1.0000
  C   C125      1.0  0.26636  0.07617  0.24293  1.0000
  C   C126      1.0  0.25702  0.06742  0.18855  1.0000
  H   H49       1.0  0.23366  0.05649  0.15485  1.0000
  O   O25       1.0  0.21893  0.06348  0.26346  1.0000
  O   O26       1.0  0.23666  0.08009  0.36678  1.0000
  H   H50       1.0  0.26634  0.08709  0.34517  1.0000
  O   O27       1.0  0.28108  0.08010  0.23656  1.0000
  O   O28       1.0  0.26334  0.06349  0.13324  1.0000
  C   C127      1.0  0.24053  0.93384  0.80519  1.0000
  C   C128      1.0  0.25695  0.93102  0.81186  1.0000
  C   C129      1.0  0.26643  0.92539  0.75666  1.0000
  C   C130      1.0  0.25948  0.92258  0.69479  1.0000
  C   C131      1.0  0.24305  0.92539  0.68812  1.0000
  C   C132      1.0  0.23358  0.93103  0.74332  1.0000
  H   H51       1.0  0.23342  0.93806  0.84658  1.0000
  O   O29       1.0  0.26321  0.93356  0.86754  1.0000
  O   O30       1.0  0.28121  0.92286  0.76266  1.0000
  H   H52       1.0  0.26659  0.91835  0.65340  1.0000
  O   O31       1.0  0.23680  0.92286  0.63244  1.0000
  O   O32       1.0  0.21879  0.93356  0.73731  1.0000
  C   C133      1.0  0.74066  0.93695  0.69562  1.0000
  C   C134      1.0  0.73364  0.93257  0.75708  1.0000
  C   C135      1.0  0.74298  0.92383  0.81145  1.0000
  C   C136      1.0  0.75933  0.91947  0.80436  1.0000
  C   C137      1.0  0.76635  0.92384  0.74290  1.0000
  C   C138      1.0  0.75701  0.93258  0.68853  1.0000
  H   H53       1.0  0.73366  0.94350  0.65484  1.0000
  O   O33       1.0  0.71892  0.93650  0.76345  1.0000
  O   O34       1.0  0.73666  0.91990  0.86676  1.0000
  H   H54       1.0  0.76634  0.91291  0.84514  1.0000
  O   O35       1.0  0.78107  0.91991  0.73652  1.0000
  O   O36       1.0  0.76333  0.93651  0.63322  1.0000
  C   C139      1.0  0.74066  0.06305  0.30438  1.0000
  C   C140      1.0  0.73364  0.06743  0.24293  1.0000
  C   C141      1.0  0.74298  0.07617  0.18855  1.0000
  C   C142      1.0  0.75933  0.08053  0.19564  1.0000
  C   C143      1.0  0.76635  0.07616  0.25710  1.0000
  C   C144      1.0  0.75701  0.06742  0.31147  1.0000
  H   H55       1.0  0.73366  0.05650  0.34516  1.0000
  O   O37       1.0  0.71892  0.06349  0.23655  1.0000
  O   O38       1.0  0.73666  0.08010  0.13324  1.0000
  H   H56       1.0  0.76634  0.08709  0.15486  1.0000
  O   O39       1.0  0.78107  0.08010  0.26348  1.0000
  O   O40       1.0  0.76333  0.06349  0.36678  1.0000
  C   C145      1.0  0.28319  0.02923  0.95580  1.0000
  C   C146      1.0  0.28463  0.99225  0.93322  1.0000
  C   C147      1.0  0.28751  0.96302  0.97742  1.0000
  C   C148      1.0  0.28895  0.97078  0.04420  1.0000
  C   C149      1.0  0.28751  0.00775  0.06678  1.0000
  C   C150      1.0  0.28463  0.03698  0.02258  1.0000
  H   H57       1.0  0.28103  0.05115  0.92265  1.0000
  O   O41       1.0  0.28333  0.98527  0.87312  1.0000
  O   O42       1.0  0.28880  0.92975  0.95710  1.0000
  H   H58       1.0  0.29111  0.94886  0.07735  1.0000
  O   O43       1.0  0.28880  0.01473  0.12688  1.0000
  O   O44       1.0  0.28333  0.07026  0.04290  1.0000
  C   C151      1.0  0.21106  0.02922  0.54421  1.0000
  C   C152      1.0  0.21250  0.03697  0.47743  1.0000
  C   C153      1.0  0.21537  0.00775  0.43322  1.0000
  C   C154      1.0  0.21681  0.97077  0.45579  1.0000
  C   C155      1.0  0.21537  0.96302  0.52257  1.0000
  C   C156      1.0  0.21250  0.99225  0.56678  1.0000
  H   H59       1.0  0.20890  0.05114  0.57736  1.0000
  O   O45       1.0  0.21120  0.07025  0.45712  1.0000
  O   O46       1.0  0.21667  0.01472  0.37312  1.0000
  H   H60       1.0  0.21897  0.94885  0.42264  1.0000
  O   O47       1.0  0.21667  0.92974  0.54288  1.0000
  O   O48       1.0  0.21120  0.98527  0.62688  1.0000
  C   C157      1.0  0.71105  0.97077  0.04420  1.0000
  C   C158      1.0  0.71249  0.96302  0.97743  1.0000
  C   C159      1.0  0.71537  0.99224  0.93322  1.0000
  C   C160      1.0  0.71681  0.02922  0.95580  1.0000
  C   C161      1.0  0.71537  0.03698  0.02258  1.0000
  C   C162      1.0  0.71249  0.00775  0.06678  1.0000
  H   H61       1.0  0.70889  0.94886  0.07735  1.0000
  O   O49       1.0  0.71120  0.92974  0.95711  1.0000
  O   O50       1.0  0.71667  0.98527  0.87312  1.0000
  H   H62       1.0  0.71897  0.05114  0.92265  1.0000
  O   O51       1.0  0.71667  0.07026  0.04289  1.0000
  O   O52       1.0  0.71120  0.01473  0.12688  1.0000
  C   C163      1.0  0.78318  0.97078  0.45579  1.0000
  C   C164      1.0  0.78462  0.00775  0.43322  1.0000
  C   C165      1.0  0.78750  0.03698  0.47744  1.0000
  C   C166      1.0  0.78894  0.02923  0.54421  1.0000
  C   C167      1.0  0.78750  0.99225  0.56678  1.0000
  C   C168      1.0  0.78462  0.96302  0.52257  1.0000
  H   H63       1.0  0.78103  0.94886  0.42263  1.0000
  O   O53       1.0  0.78333  0.01473  0.37313  1.0000
  O   O54       1.0  0.78879  0.07026  0.45713  1.0000
  H   H64       1.0  0.79110  0.05114  0.57737  1.0000
  O   O55       1.0  0.78880  0.98527  0.62687  1.0000
  O   O56       1.0  0.78333  0.92974  0.54287  1.0000
  C   C169      1.0  0.29317  0.14971  0.11210  1.0000
  C   C170      1.0  0.30895  0.12824  0.11345  1.0000
  C   C171      1.0  0.32462  0.14952  0.10393  1.0000
  C   C172      1.0  0.32454  0.19233  0.09304  1.0000
  C   C173      1.0  0.30872  0.21391  0.09167  1.0000
  C   C174      1.0  0.29306  0.19252  0.10121  1.0000
  O   O57       1.0  0.27779  0.12883  0.12144  1.0000
  O   O58       1.0  0.30905  0.08627  0.12413  1.0000
  H   H65       1.0  0.33629  0.13356  0.10495  1.0000
  O   O59       1.0  0.33996  0.21311  0.08371  1.0000
  O   O60       1.0  0.30854  0.25597  0.08099  1.0000
  H   H66       1.0  0.28138  0.20842  0.10021  1.0000
  Cu  Cu3       1.0  0.33340  0.27214  0.07037  1.0000
  C   C175      1.0  0.19109  0.87170  0.61343  1.0000
  C   C176      1.0  0.20688  0.85025  0.61208  1.0000
  C   C177      1.0  0.20704  0.80746  0.60120  1.0000
  C   C178      1.0  0.19141  0.78600  0.59166  1.0000
  C   C179      1.0  0.17556  0.80748  0.59300  1.0000
  C   C180      1.0  0.17545  0.85030  0.60389  1.0000
  O   O61       1.0  0.19094  0.91368  0.62409  1.0000
  O   O62       1.0  0.22223  0.87123  0.62143  1.0000
  H   H67       1.0  0.21874  0.79164  0.60022  1.0000
  O   O63       1.0  0.19162  0.74396  0.58099  1.0000
  O   O64       1.0  0.16015  0.78661  0.58366  1.0000
  H   H68       1.0  0.16376  0.86617  0.60489  1.0000
  Cu  Cu4       1.0  0.16680  0.72758  0.57034  1.0000
  C   C181      1.0  0.29317  0.85029  0.88790  1.0000
  C   C182      1.0  0.30895  0.87176  0.88655  1.0000
  C   C183      1.0  0.32462  0.85048  0.89607  1.0000
  C   C184      1.0  0.32454  0.80768  0.90697  1.0000
  C   C185      1.0  0.30872  0.78610  0.90834  1.0000
  C   C186      1.0  0.29306  0.80749  0.89879  1.0000
  O   O65       1.0  0.27779  0.87117  0.87856  1.0000
  O   O66       1.0  0.30905  0.91373  0.87587  1.0000
  H   H69       1.0  0.33629  0.86644  0.89505  1.0000
  O   O67       1.0  0.33996  0.78689  0.91629  1.0000
  O   O68       1.0  0.30854  0.74404  0.91902  1.0000
  H   H70       1.0  0.28138  0.79158  0.89980  1.0000
  Cu  Cu5       1.0  0.33341  0.72786  0.92963  1.0000
  C   C187      1.0  0.19109  0.12830  0.38657  1.0000
  C   C188      1.0  0.20688  0.14975  0.38793  1.0000
  C   C189      1.0  0.20704  0.19254  0.39880  1.0000
  C   C190      1.0  0.19141  0.21399  0.40835  1.0000
  C   C191      1.0  0.17556  0.19252  0.40700  1.0000
  C   C192      1.0  0.17545  0.14970  0.39611  1.0000
  O   O69       1.0  0.19094  0.08631  0.37591  1.0000
  O   O70       1.0  0.22222  0.12877  0.37857  1.0000
  H   H71       1.0  0.21874  0.20835  0.39978  1.0000
  O   O71       1.0  0.19162  0.25603  0.41901  1.0000
  O   O72       1.0  0.16014  0.21339  0.41634  1.0000
  H   H72       1.0  0.16375  0.13383  0.39511  1.0000
  Cu  Cu6       1.0  0.16680  0.27241  0.42966  1.0000
  C   C193      1.0  0.69109  0.87169  0.88656  1.0000
  C   C194      1.0  0.70688  0.85024  0.88791  1.0000
  C   C195      1.0  0.70704  0.80745  0.89878  1.0000
  C   C196      1.0  0.69141  0.78600  0.90833  1.0000
  C   C197      1.0  0.67556  0.80747  0.90700  1.0000
  C   C198      1.0  0.67545  0.85029  0.89611  1.0000
  O   O73       1.0  0.69094  0.91367  0.87590  1.0000
  O   O74       1.0  0.72222  0.87122  0.87855  1.0000
  H   H73       1.0  0.71874  0.79164  0.89975  1.0000
  O   O75       1.0  0.69162  0.74396  0.91899  1.0000
  O   O76       1.0  0.66014  0.78660  0.91634  1.0000
  H   H74       1.0  0.66375  0.86616  0.89511  1.0000
  Cu  Cu7       1.0  0.66680  0.72758  0.92965  1.0000
  C   C199      1.0  0.79316  0.14971  0.38793  1.0000
  C   C200      1.0  0.80895  0.12823  0.38657  1.0000
  C   C201      1.0  0.82461  0.14951  0.39609  1.0000
  C   C202      1.0  0.82454  0.19232  0.40698  1.0000
  C   C203      1.0  0.80871  0.21390  0.40836  1.0000
  C   C204      1.0  0.79306  0.19251  0.39882  1.0000
  O   O77       1.0  0.77779  0.12883  0.37860  1.0000
  O   O78       1.0  0.80904  0.08626  0.37590  1.0000
  H   H75       1.0  0.83628  0.13355  0.39506  1.0000
  O   O79       1.0  0.83996  0.21310  0.41630  1.0000
  O   O80       1.0  0.80854  0.25596  0.41904  1.0000
  H   H76       1.0  0.78138  0.20842  0.39983  1.0000
  Cu  Cu8       1.0  0.83340  0.27213  0.42965  1.0000
  C   C205      1.0  0.69109  0.12831  0.11344  1.0000
  C   C206      1.0  0.70688  0.14976  0.11209  1.0000
  C   C207      1.0  0.70704  0.19255  0.10122  1.0000
  C   C208      1.0  0.69140  0.21400  0.09167  1.0000
  C   C209      1.0  0.67555  0.19252  0.09301  1.0000
  C   C210      1.0  0.67544  0.14971  0.10390  1.0000
  O   O81       1.0  0.69094  0.08633  0.12410  1.0000
  O   O82       1.0  0.72222  0.12878  0.12145  1.0000
  H   H77       1.0  0.71874  0.20836  0.10025  1.0000
  O   O83       1.0  0.69162  0.25604  0.08101  1.0000
  O   O84       1.0  0.66014  0.21339  0.08366  1.0000
  H   H78       1.0  0.66375  0.13384  0.10489  1.0000
  Cu  Cu9       1.0  0.66680  0.27242  0.07035  1.0000
  C   C211      1.0  0.79316  0.85029  0.61207  1.0000
  C   C212      1.0  0.80895  0.87177  0.61343  1.0000
  C   C213      1.0  0.82461  0.85049  0.60392  1.0000
  C   C214      1.0  0.82454  0.80768  0.59302  1.0000
  C   C215      1.0  0.80871  0.78610  0.59164  1.0000
  C   C216      1.0  0.79306  0.80749  0.60118  1.0000
  O   O85       1.0  0.77779  0.87117  0.62140  1.0000
  O   O86       1.0  0.80905  0.91374  0.62410  1.0000
  H   H79       1.0  0.83628  0.86645  0.60494  1.0000
  O   O87       1.0  0.83996  0.78690  0.58370  1.0000
  O   O88       1.0  0.80854  0.74404  0.58096  1.0000
  H   H80       1.0  0.78138  0.79158  0.60017  1.0000
  Cu  Cu10      1.0  0.83340  0.72787  0.57036  1.0000
