data_image0
_chemical_formula_structural       Fe8C18HO2H2O2H2O2HC18HO2H2O2H2O2HC18HO2H2O2H2O2HC18HO2H2O2H2O2HCu2C6HO2HO2C6HO2HO2C6HO2HO2C6HO2HO2C6HO2HO2C6HO2HO2C6HO2HO2C6HO2HO2C6O2HO2HCuC6O2HO2HCuC6O2HO2HCuC6O2HO2HCuC6O2HO2HCuC6O2HO2HCuC6O2HO2HCuC6O2HO2HCu
_chemical_formula_sum              "Fe8 C168 H56 O88 Cu10"
_cell_length_a       64.4973
_cell_length_b       30.0731
_cell_length_c       20.7046
_cell_angle_alpha    90.0034
_cell_angle_beta     90.0002
_cell_angle_gamma    90

_space_group_name_H-M_alt    "P 1"
_space_group_IT_number       1

loop_
  _space_group_symop_operation_xyz
  'x, y, z'

loop_
  _atom_site_type_symbol
  _atom_site_label
  _atom_site_symmetry_multiplicity
  _atom_site_fract_x
  _atom_site_fract_y
  _atom_site_fract_z
  _atom_site_occupancy
  Fe  Fe1       1.0  0.29216  0.09052  0.12462  1.0000
  Fe  Fe2       1.0  0.20783  0.90949  0.62461  1.0000
  Fe  Fe3       1.0  0.29217  0.90949  0.87535  1.0000
  Fe  Fe4       1.0  0.20784  0.09052  0.37542  1.0000
  Fe  Fe5       1.0  0.70784  0.90948  0.87538  1.0000
  Fe  Fe6       1.0  0.79216  0.09051  0.37539  1.0000
  Fe  Fe7       1.0  0.70783  0.09051  0.12465  1.0000
  Fe  Fe8       1.0  0.79216  0.90948  0.62459  1.0000
  C   C1        1.0  0.38621  0.52279  0.99317  1.0000
  C   C2        1.0  0.40501  0.54557  0.98623  1.0000
  C   C3        1.0  0.42380  0.52279  0.99317  1.0000
  C   C4        1.0  0.42380  0.47722  0.00703  1.0000
  C   C5        1.0  0.40501  0.45444  0.01397  1.0000
  C   C6        1.0  0.38621  0.47722  0.00703  1.0000
  C   C7        1.0  0.44260  0.45444  0.01397  1.0000
  C   C8        1.0  0.46140  0.47722  0.00704  1.0000
  C   C9        1.0  0.46140  0.52278  0.99317  1.0000
  C   C10       1.0  0.44260  0.54557  0.98623  1.0000
  C   C11       1.0  0.36741  0.54557  0.98623  1.0000
  C   C12       1.0  0.36741  0.59113  0.97236  1.0000
  C   C13       1.0  0.38621  0.61391  0.96543  1.0000
  C   C14       1.0  0.40501  0.59113  0.97236  1.0000
  C   C15       1.0  0.36741  0.45444  0.01397  1.0000
  C   C16       1.0  0.36741  0.40888  0.02783  1.0000
  C   C17       1.0  0.38621  0.38610  0.03477  1.0000
  C   C18       1.0  0.40500  0.40888  0.02784  1.0000
  H   H1        1.0  0.44260  0.42027  0.02437  1.0000
  O   O1        1.0  0.47832  0.45672  0.01328  1.0000
  O   O2        1.0  0.47832  0.54329  0.98693  1.0000
  H   H2        1.0  0.44260  0.57974  0.97583  1.0000
  H   H3        1.0  0.35331  0.52848  0.99143  1.0000
  O   O3        1.0  0.35049  0.61164  0.96612  1.0000
  O   O4        1.0  0.38621  0.65492  0.95295  1.0000
  H   H4        1.0  0.41911  0.60822  0.96716  1.0000
  H   H5        1.0  0.35331  0.47153  0.00877  1.0000
  O   O5        1.0  0.35049  0.38838  0.03407  1.0000
  O   O6        1.0  0.38621  0.34509  0.04725  1.0000
  H   H6        1.0  0.41910  0.39179  0.03304  1.0000
  C   C19       1.0  0.09499  0.45444  0.48615  1.0000
  C   C20       1.0  0.11379  0.47722  0.49308  1.0000
  C   C21       1.0  0.11379  0.52279  0.50694  1.0000
  C   C22       1.0  0.09499  0.54557  0.51388  1.0000
  C   C23       1.0  0.07619  0.52278  0.50694  1.0000
  C   C24       1.0  0.07619  0.47722  0.49308  1.0000
  C   C25       1.0  0.09499  0.59113  0.52774  1.0000
  C   C26       1.0  0.11379  0.61391  0.53467  1.0000
  C   C27       1.0  0.13259  0.59113  0.52774  1.0000
  C   C28       1.0  0.13259  0.54557  0.51388  1.0000
  C   C29       1.0  0.09499  0.40887  0.47228  1.0000
  C   C30       1.0  0.11379  0.38609  0.46535  1.0000
  C   C31       1.0  0.13259  0.40887  0.47228  1.0000
  C   C32       1.0  0.13259  0.45444  0.48615  1.0000
  C   C33       1.0  0.05739  0.45444  0.48615  1.0000
  C   C34       1.0  0.03860  0.47722  0.49308  1.0000
  C   C35       1.0  0.03860  0.52278  0.50694  1.0000
  C   C36       1.0  0.05739  0.54557  0.51387  1.0000
  H   H7        1.0  0.08089  0.60822  0.53294  1.0000
  O   O7        1.0  0.11379  0.65492  0.54715  1.0000
  O   O8        1.0  0.14951  0.61164  0.53398  1.0000
  H   H8        1.0  0.14669  0.52848  0.50868  1.0000
  H   H9        1.0  0.08089  0.39179  0.46708  1.0000
  O   O9        1.0  0.11379  0.34508  0.45287  1.0000
  O   O10       1.0  0.14951  0.38837  0.46605  1.0000
  H   H10       1.0  0.14669  0.47153  0.49135  1.0000
  H   H11       1.0  0.05740  0.42026  0.47575  1.0000
  O   O11       1.0  0.02168  0.45671  0.48684  1.0000
  O   O12       1.0  0.02168  0.54329  0.51318  1.0000
  H   H12       1.0  0.05739  0.57974  0.52427  1.0000
  C   C37       1.0  0.59499  0.45443  0.01397  1.0000
  C   C38       1.0  0.61379  0.47721  0.00703  1.0000
  C   C39       1.0  0.61379  0.52278  0.99317  1.0000
  C   C40       1.0  0.59499  0.54556  0.98623  1.0000
  C   C41       1.0  0.57619  0.52278  0.99317  1.0000
  C   C42       1.0  0.57619  0.47722  0.00703  1.0000
  C   C43       1.0  0.59499  0.59112  0.97236  1.0000
  C   C44       1.0  0.61379  0.61390  0.96543  1.0000
  C   C45       1.0  0.63259  0.59112  0.97236  1.0000
  C   C46       1.0  0.63259  0.54556  0.98623  1.0000
  C   C47       1.0  0.59499  0.40887  0.02784  1.0000
  C   C48       1.0  0.61379  0.38609  0.03477  1.0000
  C   C49       1.0  0.63259  0.40887  0.02784  1.0000
  C   C50       1.0  0.63259  0.45443  0.01397  1.0000
  C   C51       1.0  0.55740  0.45443  0.01397  1.0000
  C   C52       1.0  0.53860  0.47722  0.00703  1.0000
  C   C53       1.0  0.53860  0.52278  0.99316  1.0000
  C   C54       1.0  0.55740  0.54556  0.98623  1.0000
  H   H13       1.0  0.58090  0.60821  0.96716  1.0000
  O   O13       1.0  0.61379  0.65491  0.95295  1.0000
  O   O14       1.0  0.64951  0.61163  0.96612  1.0000
  H   H14       1.0  0.64669  0.52847  0.99143  1.0000
  H   H15       1.0  0.58089  0.39178  0.03304  1.0000
  O   O15       1.0  0.61379  0.34508  0.04725  1.0000
  O   O16       1.0  0.64951  0.38837  0.03408  1.0000
  H   H16       1.0  0.64669  0.47152  0.00877  1.0000
  H   H17       1.0  0.55740  0.42026  0.02437  1.0000
  O   O17       1.0  0.52168  0.45671  0.01327  1.0000
  O   O18       1.0  0.52168  0.54328  0.98692  1.0000
  H   H18       1.0  0.55740  0.57973  0.97583  1.0000
  C   C55       1.0  0.88621  0.52278  0.50693  1.0000
  C   C56       1.0  0.90501  0.54556  0.51387  1.0000
  C   C57       1.0  0.92381  0.52278  0.50694  1.0000
  C   C58       1.0  0.92381  0.47721  0.49307  1.0000
  C   C59       1.0  0.90501  0.45443  0.48614  1.0000
  C   C60       1.0  0.88621  0.47721  0.49307  1.0000
  C   C61       1.0  0.94261  0.45443  0.48614  1.0000
  C   C62       1.0  0.96140  0.47721  0.49307  1.0000
  C   C63       1.0  0.96140  0.52278  0.50694  1.0000
  C   C64       1.0  0.94261  0.54556  0.51387  1.0000
  C   C65       1.0  0.86741  0.54556  0.51387  1.0000
  C   C66       1.0  0.86741  0.59112  0.52773  1.0000
  C   C67       1.0  0.88621  0.61391  0.53466  1.0000
  C   C68       1.0  0.90501  0.59113  0.52773  1.0000
  C   C69       1.0  0.86741  0.45443  0.48614  1.0000
  C   C70       1.0  0.86741  0.40887  0.47227  1.0000
  C   C71       1.0  0.88621  0.38608  0.46534  1.0000
  C   C72       1.0  0.90501  0.40887  0.47227  1.0000
  H   H19       1.0  0.94261  0.42026  0.47574  1.0000
  O   O19       1.0  0.97832  0.45671  0.48684  1.0000
  O   O20       1.0  0.97832  0.54328  0.51318  1.0000
  H   H20       1.0  0.94261  0.57973  0.52427  1.0000
  H   H21       1.0  0.85331  0.52847  0.50867  1.0000
  O   O21       1.0  0.85049  0.61163  0.53397  1.0000
  O   O22       1.0  0.88621  0.65492  0.54714  1.0000
  H   H22       1.0  0.91911  0.60821  0.53293  1.0000
  H   H23       1.0  0.85331  0.47152  0.49134  1.0000
  O   O23       1.0  0.85049  0.38836  0.46603  1.0000
  O   O24       1.0  0.88621  0.34508  0.45286  1.0000
  H   H24       1.0  0.91911  0.39178  0.46708  1.0000
  Cu  Cu1       1.0  0.50000  0.50000  0.00010  1.0000
  Cu  Cu2       1.0  0.00010  0.50000  0.50001  1.0000
  C   C73       1.0  0.23648  0.07772  0.19938  1.0000
  C   C74       1.0  0.22879  0.08299  0.26214  1.0000
  C   C75       1.0  0.24231  0.09352  0.31278  1.0000
  C   C76       1.0  0.26352  0.09879  0.30066  1.0000
  C   C77       1.0  0.27122  0.09353  0.23790  1.0000
  C   C78       1.0  0.25770  0.08299  0.18726  1.0000
  H   H25       1.0  0.22634  0.06981  0.16140  1.0000
  O   O25       1.0  0.20970  0.07824  0.27305  1.0000
  O   O26       1.0  0.23538  0.09827  0.36927  1.0000
  H   H26       1.0  0.27366  0.10670  0.33864  1.0000
  O   O27       1.0  0.29031  0.09827  0.22699  1.0000
  O   O28       1.0  0.26462  0.07825  0.13077  1.0000
  C   C79       1.0  0.23649  0.92225  0.80064  1.0000
  C   C80       1.0  0.25770  0.91700  0.81274  1.0000
  C   C81       1.0  0.27122  0.90651  0.76208  1.0000
  C   C82       1.0  0.26352  0.90126  0.69932  1.0000
  C   C83       1.0  0.24231  0.90651  0.68722  1.0000
  C   C84       1.0  0.22879  0.91700  0.73788  1.0000
  H   H27       1.0  0.22635  0.93012  0.83864  1.0000
  O   O29       1.0  0.26463  0.92172  0.86923  1.0000
  O   O30       1.0  0.29031  0.90178  0.77297  1.0000
  H   H28       1.0  0.27366  0.89339  0.66132  1.0000
  O   O31       1.0  0.23538  0.90178  0.63073  1.0000
  O   O32       1.0  0.20969  0.92172  0.72699  1.0000
  C   C85       1.0  0.73648  0.92228  0.69934  1.0000
  C   C86       1.0  0.72878  0.91701  0.76210  1.0000
  C   C87       1.0  0.74230  0.90647  0.81274  1.0000
  C   C88       1.0  0.76352  0.90121  0.80062  1.0000
  C   C89       1.0  0.77121  0.90648  0.73786  1.0000
  C   C90       1.0  0.75769  0.91701  0.68722  1.0000
  H   H29       1.0  0.72634  0.93018  0.66136  1.0000
  O   O33       1.0  0.70969  0.92175  0.77301  1.0000
  O   O34       1.0  0.73538  0.90173  0.86923  1.0000
  H   H30       1.0  0.77366  0.89330  0.83860  1.0000
  O   O35       1.0  0.79030  0.90174  0.72695  1.0000
  O   O36       1.0  0.76462  0.92176  0.63073  1.0000
  C   C91       1.0  0.73648  0.07771  0.30067  1.0000
  C   C92       1.0  0.72878  0.08298  0.23791  1.0000
  C   C93       1.0  0.74230  0.09352  0.18727  1.0000
  C   C94       1.0  0.76351  0.09879  0.19938  1.0000
  C   C95       1.0  0.77121  0.09352  0.26213  1.0000
  C   C96       1.0  0.75770  0.08298  0.31278  1.0000
  H   H31       1.0  0.72634  0.06981  0.33866  1.0000
  O   O37       1.0  0.70969  0.07824  0.22701  1.0000
  O   O38       1.0  0.73537  0.09826  0.13078  1.0000
  H   H32       1.0  0.77365  0.10669  0.16139  1.0000
  O   O39       1.0  0.79030  0.09826  0.27303  1.0000
  O   O40       1.0  0.76462  0.07823  0.36926  1.0000
  C   C97       1.0  0.28996  0.03303  0.95419  1.0000
  C   C98       1.0  0.29208  0.98867  0.93473  1.0000
  C   C99       1.0  0.29632  0.95565  0.98053  1.0000
  C   C100      1.0  0.29843  0.96699  0.04579  1.0000
  C   C101      1.0  0.29631  0.01134  0.06524  1.0000
  C   C102      1.0  0.29208  0.04436  0.01944  1.0000
  H   H33       1.0  0.28679  0.05779  0.91984  1.0000
  O   O41       1.0  0.29018  0.97847  0.87601  1.0000
  O   O42       1.0  0.29823  0.91573  0.96302  1.0000
  H   H34       1.0  0.30161  0.94222  0.08013  1.0000
  O   O43       1.0  0.29822  0.02154  0.12397  1.0000
  O   O44       1.0  0.29017  0.08428  0.03695  1.0000
  C   C103      1.0  0.20157  0.03302  0.54583  1.0000
  C   C104      1.0  0.20369  0.04436  0.48058  1.0000
  C   C105      1.0  0.20792  0.01134  0.43477  1.0000
  C   C106      1.0  0.21004  0.96698  0.45421  1.0000
  C   C107      1.0  0.20792  0.95565  0.51945  1.0000
  C   C108      1.0  0.20369  0.98867  0.56526  1.0000
  H   H35       1.0  0.19840  0.05779  0.58018  1.0000
  O   O45       1.0  0.20179  0.08428  0.46308  1.0000
  O   O46       1.0  0.20983  0.02154  0.37604  1.0000
  H   H36       1.0  0.21321  0.94222  0.41985  1.0000
  O   O47       1.0  0.20982  0.91573  0.53695  1.0000
  O   O48       1.0  0.20178  0.97846  0.62399  1.0000
  C   C109      1.0  0.70157  0.96697  0.04581  1.0000
  C   C110      1.0  0.70369  0.95564  0.98056  1.0000
  C   C111      1.0  0.70792  0.98866  0.93476  1.0000
  C   C112      1.0  0.71004  0.03302  0.95422  1.0000
  C   C113      1.0  0.70792  0.04435  0.01947  1.0000
  C   C114      1.0  0.70368  0.01133  0.06527  1.0000
  H   H37       1.0  0.69839  0.94221  0.08016  1.0000
  O   O49       1.0  0.70178  0.91572  0.96305  1.0000
  O   O50       1.0  0.70983  0.97846  0.87603  1.0000
  H   H38       1.0  0.71321  0.05778  0.91987  1.0000
  O   O51       1.0  0.70982  0.08427  0.03698  1.0000
  O   O52       1.0  0.70178  0.02153  0.12399  1.0000
  C   C115      1.0  0.78996  0.96698  0.45418  1.0000
  C   C116      1.0  0.79208  0.01133  0.43474  1.0000
  C   C117      1.0  0.79631  0.04435  0.48055  1.0000
  C   C118      1.0  0.79843  0.03301  0.54580  1.0000
  C   C119      1.0  0.79631  0.98866  0.56524  1.0000
  C   C120      1.0  0.79208  0.95564  0.51943  1.0000
  H   H39       1.0  0.78679  0.94221  0.41982  1.0000
  O   O53       1.0  0.79017  0.02154  0.37602  1.0000
  O   O54       1.0  0.79822  0.08427  0.46306  1.0000
  H   H40       1.0  0.80160  0.05778  0.58016  1.0000
  O   O55       1.0  0.79821  0.97845  0.62396  1.0000
  O   O56       1.0  0.79017  0.91572  0.53692  1.0000
  C   C121      1.0  0.30404  0.17955  0.10323  1.0000
  C   C122      1.0  0.32468  0.15387  0.10307  1.0000
  C   C123      1.0  0.34520  0.17868  0.09120  1.0000
  C   C124      1.0  0.34513  0.22923  0.07946  1.0000
  C   C125      1.0  0.32444  0.25504  0.07960  1.0000
  C   C126      1.0  0.30394  0.23011  0.09150  1.0000
  O   O57       1.0  0.28391  0.15522  0.11488  1.0000
  O   O58       1.0  0.32477  0.10430  0.11457  1.0000
  H   H41       1.0  0.36045  0.15959  0.09110  1.0000
  O   O59       1.0  0.36533  0.25346  0.06782  1.0000
  O   O60       1.0  0.32425  0.30472  0.06810  1.0000
  H   H42       1.0  0.28866  0.24913  0.09161  1.0000
  Cu  Cu3       1.0  0.35680  0.32330  0.05410  1.0000
  C   C127      1.0  0.17538  0.84606  0.60306  1.0000
  C   C128      1.0  0.19602  0.82040  0.60322  1.0000
  C   C129      1.0  0.19619  0.76987  0.59151  1.0000
  C   C130      1.0  0.17571  0.74486  0.57961  1.0000
  C   C131      1.0  0.15499  0.77055  0.57944  1.0000
  C   C132      1.0  0.15488  0.82111  0.59117  1.0000
  O   O61       1.0  0.17521  0.89564  0.61455  1.0000
  O   O62       1.0  0.21611  0.84487  0.61487  1.0000
  H   H43       1.0  0.21149  0.75095  0.59165  1.0000
  O   O63       1.0  0.17595  0.69521  0.56813  1.0000
  O   O64       1.0  0.13480  0.74622  0.56779  1.0000
  H   H44       1.0  0.13960  0.84010  0.59105  1.0000
  Cu  Cu4       1.0  0.14347  0.67637  0.55410  1.0000
  C   C133      1.0  0.30404  0.82046  0.89675  1.0000
  C   C134      1.0  0.32468  0.84614  0.89691  1.0000
  C   C135      1.0  0.34520  0.82133  0.90878  1.0000
  C   C136      1.0  0.34514  0.77078  0.92053  1.0000
  C   C137      1.0  0.32445  0.74497  0.92039  1.0000
  C   C138      1.0  0.30395  0.76991  0.90849  1.0000
  O   O65       1.0  0.28391  0.84480  0.88510  1.0000
  O   O66       1.0  0.32478  0.89571  0.88540  1.0000
  H   H45       1.0  0.36046  0.84042  0.90888  1.0000
  O   O67       1.0  0.36533  0.74655  0.93218  1.0000
  O   O68       1.0  0.32425  0.69530  0.93189  1.0000
  H   H46       1.0  0.28867  0.75089  0.90838  1.0000
  Cu  Cu5       1.0  0.35680  0.67671  0.94590  1.0000
  C   C139      1.0  0.17538  0.15395  0.39697  1.0000
  C   C140      1.0  0.19602  0.17960  0.39681  1.0000
  C   C141      1.0  0.19619  0.23014  0.40852  1.0000
  C   C142      1.0  0.17572  0.25515  0.42042  1.0000
  C   C143      1.0  0.15499  0.22946  0.42059  1.0000
  C   C144      1.0  0.15489  0.17889  0.40886  1.0000
  O   O69       1.0  0.17521  0.10436  0.38548  1.0000
  O   O70       1.0  0.21612  0.15514  0.38515  1.0000
  H   H47       1.0  0.21149  0.24906  0.40838  1.0000
  O   O71       1.0  0.17596  0.30480  0.43190  1.0000
  O   O72       1.0  0.13481  0.25379  0.43225  1.0000
  H   H48       1.0  0.13960  0.15991  0.40898  1.0000
  Cu  Cu6       1.0  0.14347  0.32363  0.44592  1.0000
  C   C145      1.0  0.67538  0.84605  0.89694  1.0000
  C   C146      1.0  0.69602  0.82039  0.89677  1.0000
  C   C147      1.0  0.69619  0.76986  0.90847  1.0000
  C   C148      1.0  0.67571  0.74484  0.92038  1.0000
  C   C149      1.0  0.65499  0.77053  0.92056  1.0000
  C   C150      1.0  0.65489  0.82110  0.90883  1.0000
  O   O73       1.0  0.67521  0.89563  0.88545  1.0000
  O   O74       1.0  0.71611  0.84485  0.88510  1.0000
  H   H49       1.0  0.71149  0.75094  0.90833  1.0000
  O   O75       1.0  0.67596  0.69519  0.93186  1.0000
  O   O76       1.0  0.63481  0.74621  0.93222  1.0000
  H   H50       1.0  0.63960  0.84008  0.90896  1.0000
  Cu  Cu7       1.0  0.64347  0.67636  0.94590  1.0000
  C   C151      1.0  0.80404  0.17954  0.39680  1.0000
  C   C152      1.0  0.82468  0.15385  0.39694  1.0000
  C   C153      1.0  0.84520  0.17866  0.40881  1.0000
  C   C154      1.0  0.84513  0.22922  0.42056  1.0000
  C   C155      1.0  0.82445  0.25503  0.42042  1.0000
  C   C156      1.0  0.80394  0.23009  0.40853  1.0000
  O   O77       1.0  0.78391  0.15520  0.38515  1.0000
  O   O78       1.0  0.82477  0.10429  0.38544  1.0000
  H   H51       1.0  0.86045  0.15958  0.40890  1.0000
  O   O79       1.0  0.86533  0.25344  0.43219  1.0000
  O   O80       1.0  0.82425  0.30470  0.43192  1.0000
  H   H52       1.0  0.78867  0.24911  0.40842  1.0000
  Cu  Cu8       1.0  0.85680  0.32329  0.44591  1.0000
  C   C157      1.0  0.67537  0.15395  0.10309  1.0000
  C   C158      1.0  0.69602  0.17960  0.10325  1.0000
  C   C159      1.0  0.69619  0.23013  0.09154  1.0000
  C   C160      1.0  0.67571  0.25515  0.07963  1.0000
  C   C161      1.0  0.65499  0.22946  0.07945  1.0000
  C   C162      1.0  0.65488  0.17889  0.09119  1.0000
  O   O81       1.0  0.67521  0.10436  0.11458  1.0000
  O   O82       1.0  0.71611  0.15514  0.11492  1.0000
  H   H53       1.0  0.71149  0.24905  0.09169  1.0000
  O   O83       1.0  0.67596  0.30480  0.06815  1.0000
  O   O84       1.0  0.63480  0.25379  0.06779  1.0000
  H   H54       1.0  0.63960  0.15991  0.09106  1.0000
  Cu  Cu9       1.0  0.64347  0.32363  0.05411  1.0000
  C   C163      1.0  0.80404  0.82045  0.60319  1.0000
  C   C164      1.0  0.82467  0.84614  0.60304  1.0000
  C   C165      1.0  0.84519  0.82133  0.59118  1.0000
  C   C166      1.0  0.84513  0.77077  0.57944  1.0000
  C   C167      1.0  0.82444  0.74496  0.57957  1.0000
  C   C168      1.0  0.80394  0.76990  0.59146  1.0000
  O   O85       1.0  0.78390  0.84479  0.61483  1.0000
  O   O86       1.0  0.82477  0.89570  0.61454  1.0000
  H   H55       1.0  0.86045  0.84042  0.59109  1.0000
  O   O87       1.0  0.86533  0.74655  0.56780  1.0000
  O   O88       1.0  0.82425  0.69529  0.56808  1.0000
  H   H56       1.0  0.78867  0.75087  0.59157  1.0000
  Cu  Cu10      1.0  0.85680  0.67670  0.55409  1.0000
