data_image0
_chemical_formula_structural       Fe8C18HO2H2O2H2O2HC18HO2H2O2H2O2HC18HO2H2O2H2O2HC18HO2H2O2H2O2HC18HO2H2O2H2O2HC18HO2H2O2H2O2HC18HO2H2O2H2O2HC18HO2H2O2H2O2HCu4C6HO2HO2C6HO2HO2C6HO2HO2C6HO2HO2
_chemical_formula_sum              "Fe8 C168 H56 O64 Cu4"
_cell_length_a       22.567
_cell_length_b       22.567
_cell_length_c       35.3024
_cell_angle_alpha    89.9973
_cell_angle_beta     90.0027
_cell_angle_gamma    89.6951

_space_group_name_H-M_alt    "P 1"
_space_group_IT_number       1

loop_
  _space_group_symop_operation_xyz
  'x, y, z'

loop_
  _atom_site_type_symbol
  _atom_site_label
  _atom_site_symmetry_multiplicity
  _atom_site_fract_x
  _atom_site_fract_y
  _atom_site_fract_z
  _atom_site_occupancy
  Fe  Fe1       1.0  0.08468  0.24901  0.24980  1.0000
  Fe  Fe2       1.0  0.24900  0.08468  0.75021  1.0000
  Fe  Fe3       1.0  0.41542  0.25088  0.24983  1.0000
  Fe  Fe4       1.0  0.25088  0.41542  0.75017  1.0000
  Fe  Fe5       1.0  0.91532  0.75099  0.75020  1.0000
  Fe  Fe6       1.0  0.75100  0.91532  0.24979  1.0000
  Fe  Fe7       1.0  0.58458  0.74912  0.75017  1.0000
  Fe  Fe8       1.0  0.74912  0.58458  0.24983  1.0000
  C   C1        1.0  0.51023  0.09812  0.16651  1.0000
  C   C2        1.0  0.54309  0.08697  0.19942  1.0000
  C   C3        1.0  0.58707  0.04299  0.19941  1.0000
  C   C4        1.0  0.59820  0.01015  0.16650  1.0000
  C   C5        1.0  0.56535  0.02130  0.13360  1.0000
  C   C6        1.0  0.52136  0.06528  0.13361  1.0000
  C   C7        1.0  0.64219  0.96617  0.16650  1.0000
  C   C8        1.0  0.67504  0.95502  0.19940  1.0000
  C   C9        1.0  0.66391  0.98786  0.23231  1.0000
  C   C10       1.0  0.61993  0.03185  0.23231  1.0000
  C   C11       1.0  0.46625  0.14210  0.16652  1.0000
  C   C12       1.0  0.45511  0.17494  0.19943  1.0000
  C   C13       1.0  0.48797  0.16380  0.23233  1.0000
  C   C14       1.0  0.53195  0.11981  0.23232  1.0000
  C   C15       1.0  0.48851  0.07642  0.10070  1.0000
  C   C16       1.0  0.49964  0.04359  0.06780  1.0000
  C   C17       1.0  0.54363  0.99990  0.06779  1.0000
  C   C18       1.0  0.57648  0.98846  0.10069  1.0000
  H   H1        1.0  0.65054  0.94154  0.14182  1.0000
  O   O1        1.0  0.71463  0.91544  0.19939  1.0000
  O   O2        1.0  0.69348  0.97783  0.26192  1.0000
  H   H2        1.0  0.61158  0.05647  0.25699  1.0000
  H   H3        1.0  0.44161  0.15046  0.14184  1.0000
  O   O3        1.0  0.41553  0.21453  0.19943  1.0000
  O   O4        1.0  0.47795  0.19335  0.26195  1.0000
  H   H4        1.0  0.55660  0.11145  0.25700  1.0000
  H   H5        1.0  0.45552  0.10941  0.10071  1.0000
  O   O5        1.0  0.47007  0.05362  0.03818  1.0000
  O   O6        1.0  0.55364  0.97005  0.03817  1.0000
  H   H6        1.0  0.60947  0.95547  0.10069  1.0000
  C   C19       1.0  0.46147  0.58228  0.70068  1.0000
  C   C20       1.0  0.49380  0.59371  0.66765  1.0000
  C   C21       1.0  0.48237  0.56138  0.63463  1.0000
  C   C22       1.0  0.43862  0.51763  0.63463  1.0000
  C   C23       1.0  0.40629  0.50621  0.66766  1.0000
  C   C24       1.0  0.41772  0.53853  0.70068  1.0000
  C   C25       1.0  0.42720  0.48530  0.60160  1.0000
  C   C26       1.0  0.45952  0.49673  0.56858  1.0000
  C   C27       1.0  0.50327  0.54048  0.56858  1.0000
  C   C28       1.0  0.51470  0.57280  0.60160  1.0000
  C   C29       1.0  0.47289  0.61461  0.73371  1.0000
  C   C30       1.0  0.51664  0.65836  0.73371  1.0000
  C   C31       1.0  0.54897  0.66979  0.70068  1.0000
  C   C32       1.0  0.53755  0.63746  0.66765  1.0000
  C   C33       1.0  0.38539  0.52711  0.73371  1.0000
  C   C34       1.0  0.34164  0.48336  0.73371  1.0000
  C   C35       1.0  0.33022  0.45103  0.70068  1.0000
  C   C36       1.0  0.36254  0.46245  0.66766  1.0000
  H   H7        1.0  0.39438  0.45249  0.60160  1.0000
  O   O7        1.0  0.44924  0.46763  0.53886  1.0000
  O   O8        1.0  0.53237  0.55076  0.53885  1.0000
  H   H8        1.0  0.54751  0.60562  0.60160  1.0000
  H   H9        1.0  0.44865  0.60604  0.75848  1.0000
  O   O9        1.0  0.52693  0.68746  0.76343  1.0000
  O   O10       1.0  0.58835  0.70916  0.70068  1.0000
  H   H10       1.0  0.56179  0.64603  0.64288  1.0000
  H   H11       1.0  0.39396  0.55135  0.75848  1.0000
  O   O11       1.0  0.31255  0.47308  0.76343  1.0000
  O   O12       1.0  0.29084  0.41165  0.70068  1.0000
  H   H12       1.0  0.35398  0.43821  0.64289  1.0000
  C   C37       1.0  0.95700  0.41293  0.19941  1.0000
  C   C38       1.0  0.98984  0.40180  0.16650  1.0000
  C   C39       1.0  0.97869  0.43465  0.13360  1.0000
  C   C40       1.0  0.93471  0.47863  0.13360  1.0000
  C   C41       1.0  0.90187  0.48976  0.16651  1.0000
  C   C42       1.0  0.91301  0.45691  0.19941  1.0000
  C   C43       1.0  0.92357  0.51149  0.10070  1.0000
  C   C44       1.0  0.95641  0.50036  0.06779  1.0000
  C   C45       1.0  0.00010  0.45637  0.06779  1.0000
  C   C46       1.0  0.01153  0.42352  0.10069  1.0000
  C   C47       1.0  0.96814  0.38007  0.23231  1.0000
  C   C48       1.0  0.01213  0.33609  0.23231  1.0000
  C   C49       1.0  0.04497  0.32496  0.19940  1.0000
  C   C50       1.0  0.03382  0.35781  0.16650  1.0000
  C   C51       1.0  0.88017  0.46804  0.23232  1.0000
  C   C52       1.0  0.83619  0.51203  0.23232  1.0000
  C   C53       1.0  0.82504  0.54488  0.19942  1.0000
  C   C54       1.0  0.85788  0.53375  0.16652  1.0000
  H   H13       1.0  0.89058  0.54447  0.10070  1.0000
  O   O13       1.0  0.94638  0.52992  0.03818  1.0000
  O   O14       1.0  0.02995  0.44635  0.03817  1.0000
  H   H14       1.0  0.04452  0.39053  0.10069  1.0000
  H   H15       1.0  0.94351  0.38842  0.25699  1.0000
  O   O15       1.0  0.02216  0.30652  0.26192  1.0000
  O   O16       1.0  0.08455  0.28537  0.19940  1.0000
  H   H16       1.0  0.05845  0.34946  0.14182  1.0000
  H   H17       1.0  0.88853  0.44340  0.25700  1.0000
  O   O17       1.0  0.80663  0.52204  0.26194  1.0000
  O   O18       1.0  0.78546  0.58447  0.19943  1.0000
  H   H18       1.0  0.84953  0.55839  0.14184  1.0000
  C   C55       1.0  0.00608  0.90642  0.66769  1.0000
  C   C56       1.0  0.03839  0.91786  0.70072  1.0000
  C   C57       1.0  0.08214  0.96161  0.70072  1.0000
  C   C58       1.0  0.09358  0.99392  0.66769  1.0000
  C   C59       1.0  0.06127  0.98248  0.63466  1.0000
  C   C60       1.0  0.01752  0.93873  0.63466  1.0000
  C   C61       1.0  0.13733  0.03767  0.66769  1.0000
  C   C62       1.0  0.16964  0.04911  0.70072  1.0000
  C   C63       1.0  0.15819  0.01680  0.73376  1.0000
  C   C64       1.0  0.11444  0.97305  0.73375  1.0000
  C   C65       1.0  0.96233  0.86266  0.66769  1.0000
  C   C66       1.0  0.95089  0.83035  0.70072  1.0000
  C   C67       1.0  0.98319  0.84180  0.73375  1.0000
  C   C68       1.0  0.02694  0.88555  0.73375  1.0000
  C   C69       1.0  0.98521  0.92728  0.60163  1.0000
  C   C70       1.0  0.99666  0.95959  0.56860  1.0000
  C   C71       1.0  0.04041  0.00335  0.56860  1.0000
  C   C72       1.0  0.07271  0.01479  0.60163  1.0000
  H   H19       1.0  0.14591  0.06190  0.64292  1.0000
  O   O19       1.0  0.20901  0.08849  0.70072  1.0000
  O   O20       1.0  0.18727  0.02710  0.76348  1.0000
  H   H20       1.0  0.10586  0.94882  0.75853  1.0000
  H   H21       1.0  0.93810  0.85408  0.64292  1.0000
  O   O21       1.0  0.91151  0.79098  0.70072  1.0000
  O   O22       1.0  0.97290  0.81272  0.76348  1.0000
  H   H22       1.0  0.05118  0.89413  0.75853  1.0000
  H   H23       1.0  0.95240  0.89447  0.60163  1.0000
  O   O23       1.0  0.96758  0.94929  0.53887  1.0000
  O   O24       1.0  0.05070  0.03242  0.53887  1.0000
  H   H24       1.0  0.10553  0.04760  0.60163  1.0000
  C   C73       1.0  0.50620  0.40629  0.33235  1.0000
  C   C74       1.0  0.53853  0.41772  0.29932  1.0000
  C   C75       1.0  0.58228  0.46147  0.29932  1.0000
  C   C76       1.0  0.59371  0.49379  0.33234  1.0000
  C   C77       1.0  0.56138  0.48237  0.36537  1.0000
  C   C78       1.0  0.51763  0.43862  0.36537  1.0000
  C   C79       1.0  0.63746  0.53755  0.33234  1.0000
  C   C80       1.0  0.66978  0.54897  0.29932  1.0000
  C   C81       1.0  0.65836  0.51664  0.26629  1.0000
  C   C82       1.0  0.61461  0.47289  0.26629  1.0000
  C   C83       1.0  0.46245  0.36254  0.33235  1.0000
  C   C84       1.0  0.45103  0.33021  0.29932  1.0000
  C   C85       1.0  0.48336  0.34164  0.26629  1.0000
  C   C86       1.0  0.52711  0.38539  0.26629  1.0000
  C   C87       1.0  0.48530  0.42720  0.39840  1.0000
  C   C88       1.0  0.49673  0.45952  0.43142  1.0000
  C   C89       1.0  0.54048  0.50327  0.43142  1.0000
  C   C90       1.0  0.57280  0.51470  0.39840  1.0000
  H   H25       1.0  0.64602  0.56179  0.35711  1.0000
  O   O25       1.0  0.70916  0.58835  0.29932  1.0000
  O   O26       1.0  0.68745  0.52692  0.23657  1.0000
  H   H26       1.0  0.60604  0.44865  0.24152  1.0000
  H   H27       1.0  0.43821  0.35397  0.35712  1.0000
  O   O27       1.0  0.41165  0.29084  0.29932  1.0000
  O   O28       1.0  0.47307  0.31254  0.23657  1.0000
  H   H28       1.0  0.55135  0.39396  0.24152  1.0000
  H   H29       1.0  0.45249  0.39438  0.39840  1.0000
  O   O29       1.0  0.46763  0.44924  0.46115  1.0000
  O   O30       1.0  0.55076  0.53237  0.46114  1.0000
  H   H30       1.0  0.60562  0.54751  0.39840  1.0000
  C   C91       1.0  0.01016  0.59820  0.83350  1.0000
  C   C92       1.0  0.04300  0.58707  0.80059  1.0000
  C   C93       1.0  0.08699  0.54309  0.80059  1.0000
  C   C94       1.0  0.09813  0.51024  0.83349  1.0000
  C   C95       1.0  0.06529  0.52137  0.86640  1.0000
  C   C96       1.0  0.02131  0.56535  0.86640  1.0000
  C   C97       1.0  0.14212  0.46625  0.83348  1.0000
  C   C98       1.0  0.17496  0.45512  0.80058  1.0000
  C   C99       1.0  0.16381  0.48797  0.76768  1.0000
  C   C100      1.0  0.11983  0.53196  0.76768  1.0000
  C   C101      1.0  0.96618  0.64219  0.83350  1.0000
  C   C102      1.0  0.95503  0.67504  0.80060  1.0000
  C   C103      1.0  0.98787  0.66391  0.76769  1.0000
  C   C104      1.0  0.03186  0.61993  0.76769  1.0000
  C   C105      1.0  0.98847  0.57648  0.89931  1.0000
  C   C106      1.0  0.99990  0.54363  0.93221  1.0000
  C   C107      1.0  0.04359  0.49964  0.93221  1.0000
  C   C108      1.0  0.07643  0.48851  0.89930  1.0000
  H   H31       1.0  0.15047  0.44161  0.85816  1.0000
  O   O31       1.0  0.21454  0.41553  0.80057  1.0000
  O   O32       1.0  0.19337  0.47796  0.73806  1.0000
  H   H32       1.0  0.11147  0.55660  0.74300  1.0000
  H   H33       1.0  0.94155  0.65054  0.85818  1.0000
  O   O33       1.0  0.91545  0.71463  0.80060  1.0000
  O   O34       1.0  0.97784  0.69348  0.73808  1.0000
  H   H34       1.0  0.05649  0.61158  0.74301  1.0000
  H   H35       1.0  0.95548  0.60947  0.89931  1.0000
  O   O35       1.0  0.97005  0.55365  0.96183  1.0000
  O   O36       1.0  0.05362  0.47008  0.96182  1.0000
  H   H36       1.0  0.10942  0.45553  0.89930  1.0000
  C   C109      1.0  0.96161  0.08214  0.29928  1.0000
  C   C110      1.0  0.99392  0.09358  0.33231  1.0000
  C   C111      1.0  0.98248  0.06127  0.36534  1.0000
  C   C112      1.0  0.93873  0.01752  0.36534  1.0000
  C   C113      1.0  0.90642  0.00608  0.33231  1.0000
  C   C114      1.0  0.91786  0.03839  0.29928  1.0000
  C   C115      1.0  0.92729  0.98521  0.39837  1.0000
  C   C116      1.0  0.95959  0.99665  0.43140  1.0000
  C   C117      1.0  0.00334  0.04041  0.43140  1.0000
  C   C118      1.0  0.01479  0.07272  0.39837  1.0000
  C   C119      1.0  0.97306  0.11445  0.26625  1.0000
  C   C120      1.0  0.01681  0.15820  0.26625  1.0000
  C   C121      1.0  0.04911  0.16965  0.29928  1.0000
  C   C122      1.0  0.03767  0.13734  0.33231  1.0000
  C   C123      1.0  0.88556  0.02695  0.26625  1.0000
  C   C124      1.0  0.84181  0.98320  0.26624  1.0000
  C   C125      1.0  0.83036  0.95089  0.29928  1.0000
  C   C126      1.0  0.86267  0.96233  0.33231  1.0000
  H   H37       1.0  0.89447  0.95240  0.39837  1.0000
  O   O37       1.0  0.94930  0.96758  0.46113  1.0000
  O   O38       1.0  0.03242  0.05071  0.46113  1.0000
  H   H38       1.0  0.04760  0.10553  0.39837  1.0000
  H   H39       1.0  0.94882  0.10587  0.24147  1.0000
  O   O39       1.0  0.02710  0.18728  0.23652  1.0000
  O   O40       1.0  0.08849  0.20902  0.29928  1.0000
  H   H40       1.0  0.06190  0.14592  0.35708  1.0000
  H   H41       1.0  0.89414  0.05118  0.24147  1.0000
  O   O41       1.0  0.81273  0.97290  0.23652  1.0000
  O   O42       1.0  0.79099  0.91151  0.29928  1.0000
  H   H42       1.0  0.85409  0.93810  0.35708  1.0000
  C   C127      1.0  0.45691  0.91303  0.80058  1.0000
  C   C128      1.0  0.48977  0.90188  0.83349  1.0000
  C   C129      1.0  0.47864  0.93472  0.86639  1.0000
  C   C130      1.0  0.43465  0.97870  0.86640  1.0000
  C   C131      1.0  0.40180  0.98985  0.83350  1.0000
  C   C132      1.0  0.41293  0.95701  0.80059  1.0000
  C   C133      1.0  0.42352  0.01154  0.89931  1.0000
  C   C134      1.0  0.45637  0.00010  0.93221  1.0000
  C   C135      1.0  0.50036  0.95641  0.93220  1.0000
  C   C136      1.0  0.51149  0.92358  0.89930  1.0000
  C   C137      1.0  0.46805  0.88019  0.76768  1.0000
  C   C138      1.0  0.51203  0.83620  0.76767  1.0000
  C   C139      1.0  0.54489  0.82506  0.80057  1.0000
  C   C140      1.0  0.53375  0.85790  0.83348  1.0000
  C   C141      1.0  0.38007  0.96815  0.76769  1.0000
  C   C142      1.0  0.33609  0.01214  0.76769  1.0000
  C   C143      1.0  0.32496  0.04498  0.80060  1.0000
  C   C144      1.0  0.35781  0.03383  0.83350  1.0000
  H   H43       1.0  0.39053  0.04453  0.89931  1.0000
  O   O43       1.0  0.44636  0.02995  0.96183  1.0000
  O   O44       1.0  0.52993  0.94638  0.96182  1.0000
  H   H44       1.0  0.54448  0.89059  0.89929  1.0000
  H   H45       1.0  0.44340  0.88855  0.74300  1.0000
  O   O45       1.0  0.52205  0.80665  0.73805  1.0000
  O   O46       1.0  0.58447  0.78547  0.80057  1.0000
  H   H46       1.0  0.55839  0.84954  0.85816  1.0000
  H   H47       1.0  0.38842  0.94353  0.74301  1.0000
  O   O47       1.0  0.30652  0.02217  0.73808  1.0000
  O   O48       1.0  0.28537  0.08456  0.80061  1.0000
  H   H48       1.0  0.34946  0.05846  0.85818  1.0000
  Cu  Cu1       1.0  0.50000  0.00010  0.00010  1.0000
  Cu  Cu2       1.0  0.50000  0.50000  0.50000  1.0000
  Cu  Cu3       1.0  0.99990  0.50000  0.00010  1.0000
  Cu  Cu4       1.0  0.99990  0.00010  0.50000  1.0000
  C   C145      1.0  0.24945  0.30767  0.23533  1.0000
  C   C146      1.0  0.19603  0.27854  0.24260  1.0000
  C   C147      1.0  0.19662  0.22081  0.25713  1.0000
  C   C148      1.0  0.25065  0.19223  0.26440  1.0000
  C   C149      1.0  0.30407  0.22136  0.25714  1.0000
  C   C150      1.0  0.30348  0.27908  0.24261  1.0000
  H   H49       1.0  0.24901  0.35096  0.22443  1.0000
  O   O49       1.0  0.14741  0.30426  0.23605  1.0000
  O   O50       1.0  0.14854  0.19459  0.26366  1.0000
  H   H50       1.0  0.25109  0.14893  0.27531  1.0000
  O   O51       1.0  0.35269  0.19563  0.26369  1.0000
  O   O52       1.0  0.35156  0.30530  0.23607  1.0000
  C   C151      1.0  0.18791  0.25070  0.75013  1.0000
  C   C152      1.0  0.21865  0.19665  0.75014  1.0000
  C   C153      1.0  0.28068  0.19600  0.75015  1.0000
  C   C154      1.0  0.31198  0.24940  0.75014  1.0000
  C   C155      1.0  0.28124  0.30345  0.75013  1.0000
  C   C156      1.0  0.21920  0.30410  0.75013  1.0000
  H   H51       1.0  0.14138  0.25119  0.75013  1.0000
  O   O53       1.0  0.19048  0.14859  0.75015  1.0000
  O   O54       1.0  0.30835  0.14736  0.75015  1.0000
  H   H52       1.0  0.35851  0.24891  0.75014  1.0000
  O   O55       1.0  0.30941  0.35151  0.75012  1.0000
  O   O56       1.0  0.19154  0.35275  0.75012  1.0000
  C   C157      1.0  0.74930  0.81209  0.75013  1.0000
  C   C158      1.0  0.80335  0.78134  0.75014  1.0000
  C   C159      1.0  0.80400  0.71931  0.75014  1.0000
  C   C160      1.0  0.75059  0.68801  0.75013  1.0000
  C   C161      1.0  0.69655  0.71876  0.75013  1.0000
  C   C162      1.0  0.69590  0.78080  0.75012  1.0000
  H   H53       1.0  0.74882  0.85862  0.75012  1.0000
  O   O57       1.0  0.85141  0.80951  0.75014  1.0000
  O   O58       1.0  0.85264  0.69164  0.75015  1.0000
  H   H54       1.0  0.75108  0.64149  0.75014  1.0000
  O   O59       1.0  0.64849  0.69060  0.75012  1.0000
  O   O60       1.0  0.64726  0.80847  0.75011  1.0000
  C   C163      1.0  0.69233  0.75055  0.23533  1.0000
  C   C164      1.0  0.72147  0.80397  0.24259  1.0000
  C   C165      1.0  0.77920  0.80337  0.25712  1.0000
  C   C166      1.0  0.80778  0.74935  0.26440  1.0000
  C   C167      1.0  0.77864  0.69592  0.25714  1.0000
  C   C168      1.0  0.72092  0.69653  0.24260  1.0000
  H   H55       1.0  0.64904  0.75100  0.22443  1.0000
  O   O61       1.0  0.69575  0.85260  0.23604  1.0000
  O   O62       1.0  0.80542  0.85145  0.26366  1.0000
  H   H56       1.0  0.85107  0.74890  0.27530  1.0000
  O   O63       1.0  0.80436  0.64730  0.26369  1.0000
  O   O64       1.0  0.69469  0.64845  0.23607  1.0000
