data_image0
_chemical_formula_structural       Fe8C26H7O2H2O2HC4HO2HC26H7O2H2O2HC4HO2HC26H7O2H2O2HC4HO2HC26H7O2H2O2HC4HO2HC26H7O2H2O2HC4HO2HC26H7O2H2O2HC4HO2HC26H7O2H2O2HC4HO2HC26H7O2H2O2HC4HO2HCu4C6HO2HO2C6HO2HO2C6HO2HO2C6HO2HO2
_chemical_formula_sum              "Fe8 C264 H104 O64 Cu4"
_cell_length_a       30.4419
_cell_length_b       30.4419
_cell_length_c       55.3099
_cell_angle_alpha    90.0159
_cell_angle_beta     89.9839
_cell_angle_gamma    89.9433

_space_group_name_H-M_alt    "P 1"
_space_group_IT_number       1

loop_
  _space_group_symop_operation_xyz
  'x, y, z'

loop_
  _atom_site_type_symbol
  _atom_site_label
  _atom_site_symmetry_multiplicity
  _atom_site_fract_x
  _atom_site_fract_y
  _atom_site_fract_z
  _atom_site_occupancy
  Fe  Fe1       1.0  0.12727  0.25000  0.25001  1.0000
  Fe  Fe2       1.0  0.24999  0.12727  0.74999  1.0000
  Fe  Fe3       1.0  0.37234  0.25040  0.24994  1.0000
  Fe  Fe4       1.0  0.25040  0.37235  0.75005  1.0000
  Fe  Fe5       1.0  0.87273  0.75000  0.74999  1.0000
  Fe  Fe6       1.0  0.75001  0.87273  0.25001  1.0000
  Fe  Fe7       1.0  0.62766  0.74960  0.75006  1.0000
  Fe  Fe8       1.0  0.74960  0.62765  0.24995  1.0000
  C   C1        1.0  0.49224  0.06409  0.16796  1.0000
  C   C2        1.0  0.51521  0.05131  0.19173  1.0000
  C   C3        1.0  0.55100  0.01552  0.19174  1.0000
  C   C4        1.0  0.56382  0.99251  0.16797  1.0000
  C   C5        1.0  0.54085  0.00529  0.14418  1.0000
  C   C6        1.0  0.50506  0.04108  0.14417  1.0000
  C   C7        1.0  0.59961  0.95672  0.16798  1.0000
  C   C8        1.0  0.62258  0.94394  0.19175  1.0000
  C   C9        1.0  0.60976  0.96695  0.21554  1.0000
  C   C10       1.0  0.57397  0.00274  0.21553  1.0000
  C   C11       1.0  0.45645  0.09988  0.16795  1.0000
  C   C12       1.0  0.44363  0.12288  0.19172  1.0000
  C   C13       1.0  0.46661  0.11011  0.21551  1.0000
  C   C14       1.0  0.50240  0.07432  0.21552  1.0000
  C   C15       1.0  0.48209  0.05386  0.12038  1.0000
  C   C16       1.0  0.49491  0.03085  0.09661  1.0000
  C   C17       1.0  0.53070  0.99506  0.09661  1.0000
  C   C18       1.0  0.55367  0.98228  0.12039  1.0000
  C   C19       1.0  0.54351  0.97206  0.07283  1.0000
  C   C20       1.0  0.52054  0.98483  0.04903  1.0000
  C   C21       1.0  0.48475  0.02062  0.04903  1.0000
  C   C22       1.0  0.47193  0.04363  0.07282  1.0000
  C   C23       1.0  0.63274  0.95417  0.23933  1.0000
  C   C24       1.0  0.66852  0.91838  0.23934  1.0000
  C   C25       1.0  0.68134  0.89537  0.21555  1.0000
  C   C26       1.0  0.65837  0.90815  0.19176  1.0000
  H   H1        1.0  0.60910  0.93969  0.15036  1.0000
  H   H2        1.0  0.56448  0.01977  0.23313  1.0000
  H   H3        1.0  0.43945  0.10934  0.15033  1.0000
  H   H4        1.0  0.51940  0.06485  0.23312  1.0000
  H   H5        1.0  0.45559  0.08035  0.12037  1.0000
  H   H6        1.0  0.58016  0.95579  0.12039  1.0000
  H   H7        1.0  0.57001  0.94556  0.07283  1.0000
  O   O1        1.0  0.53303  0.96242  0.02587  1.0000
  O   O2        1.0  0.46238  0.03307  0.02586  1.0000
  H   H8        1.0  0.44544  0.07013  0.07281  1.0000
  H   H9        1.0  0.62325  0.97120  0.25693  1.0000
  O   O3        1.0  0.69090  0.90593  0.26250  1.0000
  O   O4        1.0  0.71620  0.86051  0.21555  1.0000
  H   H10       1.0  0.66786  0.89112  0.17416  1.0000
  C   C27       1.0  0.45379  0.13311  0.23930  1.0000
  C   C28       1.0  0.41800  0.16890  0.23929  1.0000
  C   C29       1.0  0.39503  0.18168  0.21550  1.0000
  C   C30       1.0  0.40784  0.15867  0.19171  1.0000
  H   H11       1.0  0.47079  0.12365  0.25690  1.0000
  O   O5        1.0  0.40552  0.19131  0.26246  1.0000
  O   O6        1.0  0.36017  0.21654  0.21550  1.0000
  H   H12       1.0  0.39084  0.16814  0.17411  1.0000
  C   C31       1.0  0.48582  0.54996  0.69187  1.0000
  C   C32       1.0  0.50869  0.56281  0.66808  1.0000
  C   C33       1.0  0.49582  0.53993  0.64429  1.0000
  C   C34       1.0  0.46008  0.50419  0.64428  1.0000
  C   C35       1.0  0.43719  0.49132  0.66808  1.0000
  C   C36       1.0  0.45006  0.51420  0.69188  1.0000
  C   C37       1.0  0.44722  0.48130  0.62048  1.0000
  C   C38       1.0  0.47009  0.49415  0.59669  1.0000
  C   C39       1.0  0.50585  0.52991  0.59669  1.0000
  C   C40       1.0  0.51872  0.55280  0.62049  1.0000
  C   C41       1.0  0.49869  0.57285  0.71567  1.0000
  C   C42       1.0  0.53442  0.60859  0.71568  1.0000
  C   C43       1.0  0.55732  0.62146  0.69188  1.0000
  C   C44       1.0  0.54445  0.59857  0.66808  1.0000
  C   C45       1.0  0.42716  0.50133  0.71568  1.0000
  C   C46       1.0  0.39142  0.46559  0.71567  1.0000
  C   C47       1.0  0.37856  0.44270  0.69187  1.0000
  C   C48       1.0  0.40143  0.45556  0.66808  1.0000
  C   C49       1.0  0.34280  0.40694  0.69188  1.0000
  C   C50       1.0  0.31990  0.39407  0.71568  1.0000
  C   C51       1.0  0.33277  0.41696  0.73947  1.0000
  C   C52       1.0  0.36853  0.45272  0.73947  1.0000
  C   C53       1.0  0.52875  0.54278  0.57289  1.0000
  C   C54       1.0  0.51588  0.51990  0.54909  1.0000
  C   C55       1.0  0.48012  0.48414  0.54909  1.0000
  C   C56       1.0  0.45722  0.47127  0.57289  1.0000
  H   H13       1.0  0.42073  0.45482  0.62049  1.0000
  H   H14       1.0  0.54518  0.57926  0.62049  1.0000
  H   H15       1.0  0.48173  0.56331  0.73329  1.0000
  H   H16       1.0  0.56139  0.60809  0.65047  1.0000
  H   H17       1.0  0.43669  0.51827  0.73329  1.0000
  H   H18       1.0  0.39190  0.43861  0.65047  1.0000
  H   H19       1.0  0.33327  0.39000  0.67426  1.0000
  O   O7        1.0  0.28508  0.35925  0.71568  1.0000
  O   O8        1.0  0.31048  0.40443  0.76265  1.0000
  H   H20       1.0  0.37805  0.46966  0.75709  1.0000
  H   H21       1.0  0.55521  0.56925  0.57289  1.0000
  O   O9        1.0  0.53817  0.53243  0.52591  1.0000
  O   O10       1.0  0.46759  0.46185  0.52592  1.0000
  H   H22       1.0  0.43076  0.44481  0.57289  1.0000
  C   C57       1.0  0.59308  0.65722  0.69187  1.0000
  C   C58       1.0  0.60595  0.68011  0.71567  1.0000
  C   C59       1.0  0.58305  0.66723  0.73947  1.0000
  C   C60       1.0  0.54729  0.63148  0.73948  1.0000
  H   H23       1.0  0.61002  0.66674  0.67426  1.0000
  O   O11       1.0  0.64077  0.71493  0.71567  1.0000
  O   O12       1.0  0.59558  0.68953  0.76265  1.0000
  H   H24       1.0  0.53035  0.62196  0.75709  1.0000
  C   C61       1.0  0.98449  0.44899  0.19174  1.0000
  C   C62       1.0  0.00749  0.43618  0.16797  1.0000
  C   C63       1.0  0.99471  0.45915  0.14418  1.0000
  C   C64       1.0  0.95893  0.49493  0.14417  1.0000
  C   C65       1.0  0.93592  0.50775  0.16795  1.0000
  C   C66       1.0  0.94870  0.48478  0.19174  1.0000
  C   C67       1.0  0.94615  0.51790  0.12038  1.0000
  C   C68       1.0  0.96915  0.50510  0.09661  1.0000
  C   C69       1.0  0.00494  0.46930  0.09661  1.0000
  C   C70       1.0  0.01772  0.44633  0.12040  1.0000
  C   C71       1.0  0.99728  0.42602  0.21553  1.0000
  C   C72       1.0  0.03305  0.39024  0.21554  1.0000
  C   C73       1.0  0.05607  0.37742  0.19176  1.0000
  C   C74       1.0  0.04328  0.40039  0.16797  1.0000
  C   C75       1.0  0.92568  0.49761  0.21552  1.0000
  C   C76       1.0  0.88991  0.53338  0.21551  1.0000
  C   C77       1.0  0.87713  0.55635  0.19172  1.0000
  C   C78       1.0  0.90012  0.54355  0.16795  1.0000
  C   C79       1.0  0.84133  0.59215  0.19172  1.0000
  C   C80       1.0  0.81831  0.60497  0.21550  1.0000
  C   C81       1.0  0.83110  0.58200  0.23929  1.0000
  C   C82       1.0  0.86689  0.54621  0.23930  1.0000
  C   C83       1.0  0.02796  0.45648  0.07283  1.0000
  C   C84       1.0  0.01518  0.47945  0.04904  1.0000
  C   C85       1.0  0.97938  0.51524  0.04903  1.0000
  C   C86       1.0  0.95637  0.52807  0.07282  1.0000
  H   H25       1.0  0.91964  0.54441  0.12038  1.0000
  H   H26       1.0  0.04421  0.41984  0.12040  1.0000
  H   H27       1.0  0.98023  0.43552  0.23314  1.0000
  H   H28       1.0  0.06031  0.39091  0.15037  1.0000
  H   H29       1.0  0.93514  0.48060  0.23313  1.0000
  H   H30       1.0  0.89066  0.56055  0.15034  1.0000
  H   H31       1.0  0.83187  0.60915  0.17411  1.0000
  O   O13       1.0  0.78346  0.63983  0.21550  1.0000
  O   O14       1.0  0.80868  0.59449  0.26245  1.0000
  H   H32       1.0  0.87635  0.52920  0.25690  1.0000
  H   H33       1.0  0.05445  0.42999  0.07283  1.0000
  O   O15       1.0  0.03759  0.46696  0.02588  1.0000
  O   O16       1.0  0.96693  0.53762  0.02587  1.0000
  H   H34       1.0  0.92988  0.55455  0.07281  1.0000
  C   C87       1.0  0.09186  0.34162  0.19176  1.0000
  C   C88       1.0  0.10464  0.31865  0.21555  1.0000
  C   C89       1.0  0.08163  0.33148  0.23933  1.0000
  C   C90       1.0  0.04583  0.36727  0.23933  1.0000
  H   H35       1.0  0.10889  0.33214  0.17416  1.0000
  O   O17       1.0  0.13950  0.28380  0.21556  1.0000
  O   O18       1.0  0.09408  0.30910  0.26250  1.0000
  H   H36       1.0  0.02880  0.37676  0.25693  1.0000
  C   C91       1.0  0.99173  0.93674  0.66803  1.0000
  C   C92       1.0  0.01466  0.94957  0.69181  1.0000
  C   C93       1.0  0.05042  0.98532  0.69181  1.0000
  C   C94       1.0  0.06324  0.00825  0.66803  1.0000
  C   C95       1.0  0.04030  0.99543  0.64424  1.0000
  C   C96       1.0  0.00455  0.95968  0.64424  1.0000
  C   C97       1.0  0.09899  0.04400  0.66803  1.0000
  C   C98       1.0  0.12192  0.05683  0.69181  1.0000
  C   C99       1.0  0.10910  0.03389  0.71560  1.0000
  C   C100      1.0  0.07335  0.99814  0.71560  1.0000
  C   C101      1.0  0.95598  0.90099  0.66803  1.0000
  C   C102      1.0  0.94316  0.87806  0.69181  1.0000
  C   C103      1.0  0.96609  0.89088  0.71560  1.0000
  C   C104      1.0  0.00184  0.92663  0.71560  1.0000
  C   C105      1.0  0.98162  0.94686  0.62044  1.0000
  C   C106      1.0  0.99444  0.96979  0.59667  1.0000
  C   C107      1.0  0.03019  0.00554  0.59667  1.0000
  C   C108      1.0  0.05312  0.01837  0.62044  1.0000
  C   C109      1.0  0.04301  0.02848  0.57287  1.0000
  C   C110      1.0  0.02008  0.01566  0.54908  1.0000
  C   C111      1.0  0.98433  0.97991  0.54908  1.0000
  C   C112      1.0  0.97151  0.95697  0.57287  1.0000
  C   C113      1.0  0.13204  0.04671  0.73940  1.0000
  C   C114      1.0  0.16779  0.08247  0.73940  1.0000
  C   C115      1.0  0.18061  0.10540  0.71560  1.0000
  C   C116      1.0  0.15768  0.09258  0.69181  1.0000
  H   H37       1.0  0.10848  0.06098  0.65041  1.0000
  H   H38       1.0  0.06386  0.98116  0.73321  1.0000
  H   H39       1.0  0.93900  0.89150  0.65041  1.0000
  H   H40       1.0  0.01882  0.93612  0.73321  1.0000
  H   H41       1.0  0.95515  0.92039  0.62044  1.0000
  H   H42       1.0  0.07959  0.04483  0.62044  1.0000
  H   H43       1.0  0.06948  0.05495  0.57287  1.0000
  O   O19       1.0  0.03257  0.03800  0.52591  1.0000
  O   O20       1.0  0.96199  0.96742  0.52591  1.0000
  H   H44       1.0  0.94504  0.93050  0.57287  1.0000
  H   H45       1.0  0.12255  0.02974  0.75700  1.0000
  O   O21       1.0  0.19013  0.09495  0.76257  1.0000
  O   O22       1.0  0.21543  0.14023  0.71560  1.0000
  H   H46       1.0  0.16717  0.10956  0.67420  1.0000
  C   C117      1.0  0.95327  0.86794  0.73939  1.0000
  C   C118      1.0  0.91752  0.83219  0.73939  1.0000
  C   C119      1.0  0.89458  0.81937  0.71560  1.0000
  C   C120      1.0  0.90740  0.84230  0.69181  1.0000
  H   H47       1.0  0.97025  0.87743  0.75700  1.0000
  O   O23       1.0  0.90503  0.80985  0.76256  1.0000
  O   O24       1.0  0.85976  0.78454  0.71560  1.0000
  H   H48       1.0  0.89043  0.83281  0.67420  1.0000
  C   C121      1.0  0.49130  0.43718  0.33191  1.0000
  C   C122      1.0  0.51419  0.45005  0.30813  1.0000
  C   C123      1.0  0.54994  0.48580  0.30813  1.0000
  C   C124      1.0  0.56281  0.50868  0.33191  1.0000
  C   C125      1.0  0.53992  0.49582  0.35572  1.0000
  C   C126      1.0  0.50417  0.46007  0.35572  1.0000
  C   C127      1.0  0.59856  0.54444  0.33191  1.0000
  C   C128      1.0  0.62145  0.55731  0.30813  1.0000
  C   C129      1.0  0.60858  0.53442  0.28433  1.0000
  C   C130      1.0  0.57283  0.49866  0.28433  1.0000
  C   C131      1.0  0.45555  0.40142  0.33191  1.0000
  C   C132      1.0  0.44268  0.37854  0.30813  1.0000
  C   C133      1.0  0.46557  0.39140  0.28433  1.0000
  C   C134      1.0  0.50132  0.42716  0.28433  1.0000
  C   C135      1.0  0.48128  0.44720  0.37952  1.0000
  C   C136      1.0  0.49415  0.47008  0.40331  1.0000
  C   C137      1.0  0.52990  0.50584  0.40331  1.0000
  C   C138      1.0  0.55279  0.51871  0.37952  1.0000
  C   C139      1.0  0.54277  0.52873  0.42711  1.0000
  C   C140      1.0  0.51988  0.51586  0.45091  1.0000
  C   C141      1.0  0.48413  0.48011  0.45091  1.0000
  C   C142      1.0  0.47126  0.45722  0.42711  1.0000
  C   C143      1.0  0.63147  0.54728  0.26052  1.0000
  C   C144      1.0  0.66723  0.58304  0.26052  1.0000
  C   C145      1.0  0.68009  0.60592  0.28433  1.0000
  C   C146      1.0  0.65720  0.59306  0.30813  1.0000
  H   H49       1.0  0.60809  0.56138  0.34954  1.0000
  H   H50       1.0  0.56330  0.48172  0.26671  1.0000
  H   H51       1.0  0.43860  0.39190  0.34954  1.0000
  H   H52       1.0  0.51826  0.43668  0.26671  1.0000
  H   H53       1.0  0.45481  0.42073  0.37952  1.0000
  H   H54       1.0  0.57925  0.54517  0.37952  1.0000
  H   H55       1.0  0.56924  0.55519  0.42711  1.0000
  O   O25       1.0  0.53241  0.53815  0.47409  1.0000
  O   O26       1.0  0.46183  0.46758  0.47409  1.0000
  H   H56       1.0  0.44479  0.43075  0.42711  1.0000
  H   H57       1.0  0.62195  0.53034  0.24291  1.0000
  O   O27       1.0  0.68952  0.59557  0.23734  1.0000
  O   O28       1.0  0.71492  0.64075  0.28433  1.0000
  H   H58       1.0  0.66673  0.61000  0.32574  1.0000
  C   C147      1.0  0.45270  0.36852  0.26052  1.0000
  C   C148      1.0  0.41695  0.33276  0.26052  1.0000
  C   C149      1.0  0.39406  0.31990  0.28433  1.0000
  C   C150      1.0  0.40692  0.34279  0.30813  1.0000
  H   H59       1.0  0.46964  0.37804  0.24291  1.0000
  O   O29       1.0  0.40442  0.31047  0.23735  1.0000
  O   O30       1.0  0.35923  0.28507  0.28433  1.0000
  H   H60       1.0  0.38998  0.33326  0.32574  1.0000
  C   C151      1.0  0.99250  0.56382  0.83203  1.0000
  C   C152      1.0  0.01551  0.55100  0.80826  1.0000
  C   C153      1.0  0.05130  0.51522  0.80827  1.0000
  C   C154      1.0  0.06408  0.49225  0.83204  1.0000
  C   C155      1.0  0.04107  0.50506  0.85583  1.0000
  C   C156      1.0  0.00528  0.54085  0.85582  1.0000
  C   C157      1.0  0.09987  0.45646  0.83205  1.0000
  C   C158      1.0  0.12288  0.44364  0.80828  1.0000
  C   C159      1.0  0.11010  0.46661  0.78449  1.0000
  C   C160      1.0  0.07431  0.50240  0.78448  1.0000
  C   C161      1.0  0.95672  0.59961  0.83202  1.0000
  C   C162      1.0  0.94393  0.62258  0.80825  1.0000
  C   C163      1.0  0.96694  0.60976  0.78446  1.0000
  C   C164      1.0  0.00273  0.57398  0.78447  1.0000
  C   C165      1.0  0.98227  0.55367  0.87961  1.0000
  C   C166      1.0  0.99506  0.53070  0.90339  1.0000
  C   C167      1.0  0.03085  0.49491  0.90339  1.0000
  C   C168      1.0  0.05385  0.48209  0.87962  1.0000
  C   C169      1.0  0.04363  0.47194  0.92718  1.0000
  C   C170      1.0  0.02062  0.48476  0.95097  1.0000
  C   C171      1.0  0.98483  0.52055  0.95096  1.0000
  C   C172      1.0  0.97205  0.54352  0.92717  1.0000
  C   C173      1.0  0.13311  0.45379  0.76070  1.0000
  C   C174      1.0  0.16890  0.41801  0.76071  1.0000
  C   C175      1.0  0.18168  0.39503  0.78450  1.0000
  C   C176      1.0  0.15867  0.40785  0.80829  1.0000
  H   H61       1.0  0.10933  0.43945  0.84967  1.0000
  H   H62       1.0  0.06485  0.51940  0.76688  1.0000
  H   H63       1.0  0.93968  0.60910  0.84964  1.0000
  H   H64       1.0  0.01976  0.56449  0.76687  1.0000
  H   H65       1.0  0.95578  0.58016  0.87961  1.0000
  H   H66       1.0  0.08035  0.45560  0.87963  1.0000
  H   H67       1.0  0.07012  0.44545  0.92719  1.0000
  O   O31       1.0  0.03307  0.46238  0.97414  1.0000
  O   O32       1.0  0.96242  0.53303  0.97413  1.0000
  H   H68       1.0  0.94555  0.57001  0.92717  1.0000
  H   H69       1.0  0.12365  0.47080  0.74310  1.0000
  O   O33       1.0  0.19131  0.40552  0.73754  1.0000
  O   O34       1.0  0.21654  0.36017  0.78451  1.0000
  H   H70       1.0  0.16813  0.39085  0.82589  1.0000
  C   C177      1.0  0.95416  0.63274  0.76067  1.0000
  C   C178      1.0  0.91837  0.66852  0.76066  1.0000
  C   C179      1.0  0.89536  0.68134  0.78445  1.0000
  C   C180      1.0  0.90814  0.65837  0.80824  1.0000
  H   H71       1.0  0.97119  0.62325  0.74307  1.0000
  O   O35       1.0  0.90592  0.69090  0.73749  1.0000
  O   O36       1.0  0.86050  0.71620  0.78444  1.0000
  H   H72       1.0  0.89111  0.66786  0.82584  1.0000
  C   C181      1.0  0.98534  0.05044  0.30819  1.0000
  C   C182      1.0  0.00826  0.06325  0.33197  1.0000
  C   C183      1.0  0.99544  0.04032  0.35576  1.0000
  C   C184      1.0  0.95970  0.00457  0.35577  1.0000
  C   C185      1.0  0.93676  0.99175  0.33197  1.0000
  C   C186      1.0  0.94958  0.01468  0.30819  1.0000
  C   C187      1.0  0.94688  0.98164  0.37955  1.0000
  C   C188      1.0  0.96980  0.99445  0.40334  1.0000
  C   C189      1.0  0.00556  0.03021  0.40334  1.0000
  C   C190      1.0  0.01838  0.05314  0.37955  1.0000
  C   C191      1.0  0.99816  0.07338  0.28440  1.0000
  C   C192      1.0  0.03390  0.10912  0.28440  1.0000
  C   C193      1.0  0.05684  0.12194  0.30819  1.0000
  C   C194      1.0  0.04402  0.09901  0.33197  1.0000
  C   C195      1.0  0.92664  0.00186  0.28439  1.0000
  C   C196      1.0  0.89090  0.96611  0.28440  1.0000
  C   C197      1.0  0.87808  0.94318  0.30819  1.0000
  C   C198      1.0  0.90100  0.95599  0.33197  1.0000
  C   C199      1.0  0.84232  0.90742  0.30819  1.0000
  C   C200      1.0  0.81938  0.89459  0.28439  1.0000
  C   C201      1.0  0.83220  0.91753  0.26061  1.0000
  C   C202      1.0  0.86796  0.95329  0.26061  1.0000
  C   C203      1.0  0.02850  0.04303  0.42713  1.0000
  C   C204      1.0  0.01568  0.02010  0.45092  1.0000
  C   C205      1.0  0.97992  0.98434  0.45091  1.0000
  C   C206      1.0  0.95698  0.97151  0.42712  1.0000
  H   H73       1.0  0.92040  0.95516  0.37955  1.0000
  H   H74       1.0  0.04484  0.07960  0.37955  1.0000
  H   H75       1.0  0.98117  0.06387  0.26678  1.0000
  H   H76       1.0  0.06099  0.10850  0.34958  1.0000
  H   H77       1.0  0.93613  0.01883  0.26679  1.0000
  H   H78       1.0  0.89151  0.93901  0.34958  1.0000
  H   H79       1.0  0.83283  0.89044  0.32579  1.0000
  O   O37       1.0  0.78456  0.85977  0.28439  1.0000
  O   O38       1.0  0.80987  0.90504  0.23744  1.0000
  H   H80       1.0  0.87745  0.97027  0.24300  1.0000
  H   H81       1.0  0.05496  0.06950  0.42713  1.0000
  O   O39       1.0  0.03802  0.03259  0.47409  1.0000
  O   O40       1.0  0.96743  0.96200  0.47409  1.0000
  H   H82       1.0  0.93052  0.94505  0.42713  1.0000
  C   C207      1.0  0.09260  0.15770  0.30819  1.0000
  C   C208      1.0  0.10542  0.18064  0.28440  1.0000
  C   C209      1.0  0.08248  0.16781  0.26061  1.0000
  C   C210      1.0  0.04672  0.13205  0.26061  1.0000
  H   H83       1.0  0.10957  0.16719  0.32580  1.0000
  O   O41       1.0  0.14024  0.21546  0.28440  1.0000
  O   O42       1.0  0.09497  0.19015  0.23744  1.0000
  H   H84       1.0  0.02975  0.12257  0.24300  1.0000
  C   C211      1.0  0.48479  0.94869  0.80826  1.0000
  C   C212      1.0  0.50775  0.93592  0.83204  1.0000
  C   C213      1.0  0.49493  0.95893  0.85583  1.0000
  C   C214      1.0  0.45916  0.99470  0.85583  1.0000
  C   C215      1.0  0.43618  0.00749  0.83204  1.0000
  C   C216      1.0  0.44900  0.98448  0.80825  1.0000
  C   C217      1.0  0.44634  0.01771  0.87961  1.0000
  C   C218      1.0  0.46930  0.00494  0.90339  1.0000
  C   C219      1.0  0.50509  0.96915  0.90340  1.0000
  C   C220      1.0  0.51791  0.94614  0.87962  1.0000
  C   C221      1.0  0.49761  0.92568  0.78448  1.0000
  C   C222      1.0  0.53339  0.88990  0.78448  1.0000
  C   C223      1.0  0.55636  0.87712  0.80827  1.0000
  C   C224      1.0  0.54355  0.90012  0.83205  1.0000
  C   C225      1.0  0.42602  0.99727  0.78446  1.0000
  C   C226      1.0  0.39024  0.03304  0.78447  1.0000
  C   C227      1.0  0.37743  0.05605  0.80825  1.0000
  C   C228      1.0  0.40038  0.04328  0.83203  1.0000
  C   C229      1.0  0.34163  0.09185  0.80824  1.0000
  C   C230      1.0  0.31865  0.10463  0.78445  1.0000
  C   C231      1.0  0.33147  0.08162  0.76067  1.0000
  C   C232      1.0  0.36727  0.04583  0.76068  1.0000
  C   C233      1.0  0.52807  0.95636  0.92719  1.0000
  C   C234      1.0  0.51525  0.97937  0.95097  1.0000
  C   C235      1.0  0.47946  0.01517  0.95096  1.0000
  C   C236      1.0  0.45648  0.02795  0.92717  1.0000
  H   H85       1.0  0.41983  0.04422  0.87960  1.0000
  H   H86       1.0  0.54440  0.91965  0.87962  1.0000
  H   H87       1.0  0.48059  0.93515  0.76687  1.0000
  H   H88       1.0  0.56055  0.89067  0.84966  1.0000
  H   H89       1.0  0.43551  0.98024  0.76686  1.0000
  H   H90       1.0  0.39089  0.06032  0.84963  1.0000
  H   H91       1.0  0.33214  0.10888  0.82584  1.0000
  O   O43       1.0  0.28379  0.13949  0.78444  1.0000
  O   O44       1.0  0.30910  0.09407  0.73750  1.0000
  H   H92       1.0  0.37675  0.02880  0.74307  1.0000
  H   H93       1.0  0.55456  0.92987  0.92719  1.0000
  O   O45       1.0  0.53763  0.96692  0.97414  1.0000
  O   O46       1.0  0.46697  0.03758  0.97412  1.0000
  H   H94       1.0  0.42999  0.05444  0.92717  1.0000
  C   C237      1.0  0.59216  0.84132  0.80828  1.0000
  C   C238      1.0  0.60498  0.81831  0.78450  1.0000
  C   C239      1.0  0.58200  0.83110  0.76071  1.0000
  C   C240      1.0  0.54620  0.86689  0.76070  1.0000
  H   H95       1.0  0.60916  0.83186  0.82589  1.0000
  O   O47       1.0  0.63984  0.78345  0.78450  1.0000
  O   O48       1.0  0.59448  0.80869  0.73755  1.0000
  H   H96       1.0  0.52920  0.87635  0.74309  1.0000
  Cu  Cu1       1.0  0.50000  0.00010  0.00010  1.0000
  Cu  Cu2       1.0  0.50000  0.50000  0.50000  1.0000
  Cu  Cu3       1.0  0.99990  0.50000  0.99990  1.0000
  Cu  Cu4       1.0  0.99990  0.00010  0.50000  1.0000
  C   C241      1.0  0.24968  0.29619  0.24998  1.0000
  C   C242      1.0  0.20991  0.27312  0.25000  1.0000
  C   C243      1.0  0.21004  0.22713  0.25000  1.0000
  C   C244      1.0  0.24993  0.20421  0.24999  1.0000
  C   C245      1.0  0.28970  0.22727  0.24997  1.0000
  C   C246      1.0  0.28957  0.27326  0.24997  1.0000
  H   H97       1.0  0.24958  0.33068  0.24998  1.0000
  O   O49       1.0  0.17401  0.29375  0.25001  1.0000
  O   O50       1.0  0.17425  0.20637  0.25002  1.0000
  H   H98       1.0  0.25003  0.16972  0.24999  1.0000
  O   O51       1.0  0.32560  0.20664  0.24996  1.0000
  O   O52       1.0  0.32536  0.29402  0.24995  1.0000
  C   C247      1.0  0.20723  0.24994  0.74098  1.0000
  C   C248      1.0  0.22864  0.21004  0.74548  1.0000
  C   C249      1.0  0.27160  0.20992  0.75452  1.0000
  C   C250      1.0  0.29315  0.24968  0.75905  1.0000
  C   C251      1.0  0.27174  0.28957  0.75455  1.0000
  C   C252      1.0  0.22878  0.28970  0.74551  1.0000
  H   H99       1.0  0.17502  0.25003  0.73421  1.0000
  O   O53       1.0  0.20924  0.17426  0.74141  1.0000
  O   O54       1.0  0.29086  0.17401  0.75857  1.0000
  H   H100      1.0  0.32536  0.24959  0.76582  1.0000
  O   O55       1.0  0.29114  0.32536  0.75863  1.0000
  O   O56       1.0  0.20952  0.32560  0.74146  1.0000
  C   C253      1.0  0.75007  0.79579  0.75001  1.0000
  C   C254      1.0  0.78996  0.77287  0.75000  1.0000
  C   C255      1.0  0.79009  0.72688  0.75000  1.0000
  C   C256      1.0  0.75032  0.70381  0.75002  1.0000
  C   C257      1.0  0.71043  0.72674  0.75003  1.0000
  C   C258      1.0  0.71030  0.77273  0.75003  1.0000
  H   H101      1.0  0.74997  0.83028  0.75001  1.0000
  O   O57       1.0  0.82575  0.79363  0.74998  1.0000
  O   O58       1.0  0.82599  0.70625  0.74999  1.0000
  H   H102      1.0  0.75042  0.66932  0.75002  1.0000
  O   O59       1.0  0.67464  0.70598  0.75005  1.0000
  O   O60       1.0  0.67440  0.79336  0.75004  1.0000
  C   C259      1.0  0.70382  0.75032  0.24998  1.0000
  C   C260      1.0  0.72689  0.79008  0.25000  1.0000
  C   C261      1.0  0.77288  0.78995  0.25000  1.0000
  C   C262      1.0  0.79580  0.75006  0.24999  1.0000
  C   C263      1.0  0.77273  0.71030  0.24997  1.0000
  C   C264      1.0  0.72674  0.71043  0.24997  1.0000
  H   H103      1.0  0.66933  0.75042  0.24998  1.0000
  O   O61       1.0  0.70626  0.82599  0.25001  1.0000
  O   O62       1.0  0.79364  0.82574  0.25002  1.0000
  H   H104      1.0  0.83029  0.74997  0.24999  1.0000
  O   O63       1.0  0.79336  0.67440  0.24996  1.0000
  O   O64       1.0  0.70598  0.67464  0.24995  1.0000
