data_image0
_chemical_formula_structural       Fe16C6HO2HO2C6HO2HO2C6HO2HO2C6HO2HO2C6HO2HO2C6HO2HO2C6HO2HO2C6HO2HO2C6HO2HO2C6HO2HO2C6HO2HO2C6HO2HO2C6HO2HO2C6HO2HO2C6HO2HO2C6HO2HO2C6HO2HO2C6HO2HO2C6HO2HO2C6HO2HO2C6HO2HO2C6HO2HO2C6HO2HO2C6HO2HO2
_chemical_formula_sum              "Fe16 C144 H48 O96"
_cell_length_a       29.8583
_cell_length_b       29.8533
_cell_length_c       21.1113
_cell_angle_alpha    90
_cell_angle_beta     90
_cell_angle_gamma    90

_space_group_name_H-M_alt    "P 1"
_space_group_IT_number       1

loop_
  _space_group_symop_operation_xyz
  'x, y, z'

loop_
  _atom_site_type_symbol
  _atom_site_label
  _atom_site_symmetry_multiplicity
  _atom_site_fract_x
  _atom_site_fract_y
  _atom_site_fract_z
  _atom_site_occupancy
  Fe  Fe1       1.0  0.12499  0.00010  0.00010  1.0000
  Fe  Fe2       1.0  0.25000  0.87501  0.25000  1.0000
  Fe  Fe3       1.0  0.37500  0.00010  0.50000  1.0000
  Fe  Fe4       1.0  0.25000  0.12499  0.75000  1.0000
  Fe  Fe5       1.0  0.87501  0.00010  0.00010  1.0000
  Fe  Fe6       1.0  0.75000  0.12499  0.75000  1.0000
  Fe  Fe7       1.0  0.62500  0.00010  0.50000  1.0000
  Fe  Fe8       1.0  0.75000  0.87501  0.25000  1.0000
  Fe  Fe9       1.0  0.62499  0.50000  0.50000  1.0000
  Fe  Fe10      1.0  0.75000  0.37501  0.75000  1.0000
  Fe  Fe11      1.0  0.87501  0.50000  0.00010  1.0000
  Fe  Fe12      1.0  0.75000  0.62499  0.25000  1.0000
  Fe  Fe13      1.0  0.37501  0.50000  0.50000  1.0000
  Fe  Fe14      1.0  0.25000  0.62499  0.25000  1.0000
  Fe  Fe15      1.0  0.12499  0.50000  0.00010  1.0000
  Fe  Fe16      1.0  0.25000  0.37501  0.75000  1.0000
  C   C1        1.0  0.16405  0.03915  0.82821  1.0000
  C   C2        1.0  0.19608  0.07117  0.81104  1.0000
  C   C3        1.0  0.21952  0.09462  0.85793  1.0000
  C   C4        1.0  0.21094  0.08605  0.92199  1.0000
  C   C5        1.0  0.17891  0.05402  0.93915  1.0000
  C   C6        1.0  0.15547  0.03057  0.89226  1.0000
  H   H1        1.0  0.14647  0.02156  0.79304  1.0000
  O   O1        1.0  0.20381  0.07889  0.75339  1.0000
  O   O2        1.0  0.24835  0.12345  0.84249  1.0000
  H   H2        1.0  0.22852  0.10363  0.95716  1.0000
  O   O3        1.0  0.17118  0.04630  0.99680  1.0000
  O   O4        1.0  0.12664  0.00174  0.90771  1.0000
  C   C7        1.0  0.16405  0.96095  0.17189  1.0000
  C   C8        1.0  0.15547  0.96953  0.10784  1.0000
  C   C9        1.0  0.17891  0.94608  0.06095  1.0000
  C   C10       1.0  0.21094  0.91406  0.07811  1.0000
  C   C11       1.0  0.21952  0.90548  0.14217  1.0000
  C   C12       1.0  0.19608  0.92893  0.18906  1.0000
  H   H3        1.0  0.14647  0.97854  0.20706  1.0000
  O   O5        1.0  0.12664  0.99836  0.09239  1.0000
  O   O6        1.0  0.17118  0.95380  0.00330  1.0000
  H   H4        1.0  0.22852  0.89647  0.04294  1.0000
  O   O7        1.0  0.24835  0.87665  0.15761  1.0000
  O   O8        1.0  0.20381  0.92121  0.24671  1.0000
  C   C13       1.0  0.28906  0.91406  0.42189  1.0000
  C   C14       1.0  0.32109  0.94608  0.43905  1.0000
  C   C15       1.0  0.34453  0.96953  0.39216  1.0000
  C   C16       1.0  0.33595  0.96095  0.32811  1.0000
  C   C17       1.0  0.30392  0.92893  0.31094  1.0000
  C   C18       1.0  0.28048  0.90548  0.35783  1.0000
  H   H5        1.0  0.27148  0.89647  0.45706  1.0000
  O   O9        1.0  0.32881  0.95380  0.49670  1.0000
  O   O10       1.0  0.37336  0.99836  0.40761  1.0000
  H   H6        1.0  0.35353  0.97854  0.29294  1.0000
  O   O11       1.0  0.29619  0.92121  0.25329  1.0000
  O   O12       1.0  0.25165  0.87665  0.34239  1.0000
  C   C19       1.0  0.28906  0.08595  0.57811  1.0000
  C   C20       1.0  0.32109  0.05392  0.56095  1.0000
  C   C21       1.0  0.34453  0.03047  0.60784  1.0000
  C   C22       1.0  0.33595  0.03905  0.67189  1.0000
  C   C23       1.0  0.30392  0.07107  0.68906  1.0000
  C   C24       1.0  0.28048  0.09452  0.64217  1.0000
  H   H7        1.0  0.27148  0.10353  0.54294  1.0000
  O   O13       1.0  0.32881  0.04620  0.50330  1.0000
  O   O14       1.0  0.37336  0.00164  0.59239  1.0000
  H   H8        1.0  0.35353  0.02146  0.70706  1.0000
  O   O15       1.0  0.29619  0.07880  0.74671  1.0000
  O   O16       1.0  0.25165  0.12335  0.65761  1.0000
  C   C25       1.0  0.78906  0.91406  0.07811  1.0000
  C   C26       1.0  0.82109  0.94608  0.06095  1.0000
  C   C27       1.0  0.84453  0.96953  0.10784  1.0000
  C   C28       1.0  0.83595  0.96095  0.17189  1.0000
  C   C29       1.0  0.80392  0.92893  0.18906  1.0000
  C   C30       1.0  0.78048  0.90548  0.14217  1.0000
  H   H9        1.0  0.77148  0.89647  0.04294  1.0000
  O   O17       1.0  0.82882  0.95380  0.00330  1.0000
  O   O18       1.0  0.87336  0.99836  0.09239  1.0000
  H   H10       1.0  0.85353  0.97854  0.20706  1.0000
  O   O19       1.0  0.79619  0.92121  0.24671  1.0000
  O   O20       1.0  0.75165  0.87665  0.15761  1.0000
  C   C31       1.0  0.83595  0.03915  0.82821  1.0000
  C   C32       1.0  0.80392  0.07117  0.81104  1.0000
  C   C33       1.0  0.78048  0.09462  0.85793  1.0000
  C   C34       1.0  0.78906  0.08604  0.92199  1.0000
  C   C35       1.0  0.82109  0.05402  0.93915  1.0000
  C   C36       1.0  0.84453  0.03057  0.89226  1.0000
  H   H11       1.0  0.85353  0.02156  0.79304  1.0000
  O   O21       1.0  0.79619  0.07889  0.75339  1.0000
  O   O22       1.0  0.75165  0.12345  0.84249  1.0000
  H   H12       1.0  0.77148  0.10363  0.95716  1.0000
  O   O23       1.0  0.82882  0.04630  0.99680  1.0000
  O   O24       1.0  0.87336  0.00174  0.90771  1.0000
  C   C37       1.0  0.71094  0.08604  0.57811  1.0000
  C   C38       1.0  0.71952  0.09462  0.64217  1.0000
  C   C39       1.0  0.69608  0.07117  0.68906  1.0000
  C   C40       1.0  0.66405  0.03915  0.67189  1.0000
  C   C41       1.0  0.65547  0.03057  0.60784  1.0000
  C   C42       1.0  0.67891  0.05402  0.56095  1.0000
  H   H13       1.0  0.72852  0.10363  0.54294  1.0000
  O   O25       1.0  0.74835  0.12345  0.65761  1.0000
  O   O26       1.0  0.70381  0.07889  0.74671  1.0000
  H   H14       1.0  0.64647  0.02156  0.70706  1.0000
  O   O27       1.0  0.62664  0.00174  0.59239  1.0000
  O   O28       1.0  0.67119  0.04630  0.50330  1.0000
  C   C43       1.0  0.66405  0.96095  0.32811  1.0000
  C   C44       1.0  0.65547  0.96953  0.39216  1.0000
  C   C45       1.0  0.67891  0.94608  0.43905  1.0000
  C   C46       1.0  0.71094  0.91406  0.42189  1.0000
  C   C47       1.0  0.71952  0.90548  0.35783  1.0000
  C   C48       1.0  0.69608  0.92893  0.31094  1.0000
  H   H15       1.0  0.64647  0.97854  0.29294  1.0000
  O   O29       1.0  0.62664  0.99836  0.40761  1.0000
  O   O30       1.0  0.67119  0.95380  0.49670  1.0000
  H   H16       1.0  0.72852  0.89647  0.45706  1.0000
  O   O31       1.0  0.74835  0.87665  0.34239  1.0000
  O   O32       1.0  0.70381  0.92121  0.25329  1.0000
  C   C49       1.0  0.66405  0.53905  0.32811  1.0000
  C   C50       1.0  0.65547  0.53047  0.39216  1.0000
  C   C51       1.0  0.67891  0.55392  0.43905  1.0000
  C   C52       1.0  0.71094  0.58594  0.42189  1.0000
  C   C53       1.0  0.71952  0.59452  0.35783  1.0000
  C   C54       1.0  0.69608  0.57107  0.31094  1.0000
  H   H17       1.0  0.64647  0.52146  0.29294  1.0000
  O   O33       1.0  0.62664  0.50164  0.40761  1.0000
  O   O34       1.0  0.67118  0.54620  0.49670  1.0000
  H   H18       1.0  0.72852  0.60353  0.45706  1.0000
  O   O35       1.0  0.74835  0.62335  0.34239  1.0000
  O   O36       1.0  0.70381  0.57879  0.25329  1.0000
  C   C55       1.0  0.71094  0.41406  0.57811  1.0000
  C   C56       1.0  0.71952  0.40548  0.64217  1.0000
  C   C57       1.0  0.69608  0.42893  0.68906  1.0000
  C   C58       1.0  0.66405  0.46095  0.67189  1.0000
  C   C59       1.0  0.65547  0.46953  0.60784  1.0000
  C   C60       1.0  0.67891  0.44608  0.56095  1.0000
  H   H19       1.0  0.72852  0.39647  0.54294  1.0000
  O   O37       1.0  0.74835  0.37665  0.65761  1.0000
  O   O38       1.0  0.70381  0.42121  0.74671  1.0000
  H   H20       1.0  0.64647  0.47854  0.70706  1.0000
  O   O39       1.0  0.62664  0.49836  0.59239  1.0000
  O   O40       1.0  0.67118  0.45380  0.50330  1.0000
  C   C61       1.0  0.78906  0.41406  0.92199  1.0000
  C   C62       1.0  0.78048  0.40548  0.85793  1.0000
  C   C63       1.0  0.80392  0.42893  0.81104  1.0000
  C   C64       1.0  0.83595  0.46095  0.82821  1.0000
  C   C65       1.0  0.84453  0.46953  0.89226  1.0000
  C   C66       1.0  0.82109  0.44608  0.93915  1.0000
  H   H21       1.0  0.77148  0.39647  0.95716  1.0000
  O   O41       1.0  0.75165  0.37665  0.84249  1.0000
  O   O42       1.0  0.79619  0.42121  0.75339  1.0000
  H   H22       1.0  0.85353  0.47854  0.79304  1.0000
  O   O43       1.0  0.87336  0.49836  0.90771  1.0000
  O   O44       1.0  0.82882  0.45380  0.99680  1.0000
  C   C67       1.0  0.83595  0.53905  0.17199  1.0000
  C   C68       1.0  0.80392  0.57107  0.18916  1.0000
  C   C69       1.0  0.78048  0.59452  0.14227  1.0000
  C   C70       1.0  0.78906  0.58595  0.07821  1.0000
  C   C71       1.0  0.82109  0.55392  0.06105  1.0000
  C   C72       1.0  0.84453  0.53047  0.10794  1.0000
  H   H23       1.0  0.85353  0.52146  0.20716  1.0000
  O   O45       1.0  0.79619  0.57879  0.24681  1.0000
  O   O46       1.0  0.75165  0.62335  0.15771  1.0000
  H   H24       1.0  0.77148  0.60353  0.04304  1.0000
  O   O47       1.0  0.82882  0.54620  0.00340  1.0000
  O   O48       1.0  0.87336  0.50164  0.09249  1.0000
  C   C73       1.0  0.28906  0.41406  0.57811  1.0000
  C   C74       1.0  0.28048  0.40548  0.64217  1.0000
  C   C75       1.0  0.30392  0.42893  0.68906  1.0000
  C   C76       1.0  0.33595  0.46095  0.67189  1.0000
  C   C77       1.0  0.34453  0.46953  0.60784  1.0000
  C   C78       1.0  0.32109  0.44608  0.56095  1.0000
  H   H25       1.0  0.27148  0.39647  0.54294  1.0000
  O   O49       1.0  0.25165  0.37665  0.65761  1.0000
  O   O50       1.0  0.29619  0.42121  0.74671  1.0000
  H   H26       1.0  0.35353  0.47854  0.70706  1.0000
  O   O51       1.0  0.37336  0.49836  0.59239  1.0000
  O   O52       1.0  0.32882  0.45380  0.50330  1.0000
  C   C79       1.0  0.33595  0.53905  0.32811  1.0000
  C   C80       1.0  0.34453  0.53047  0.39216  1.0000
  C   C81       1.0  0.32109  0.55392  0.43905  1.0000
  C   C82       1.0  0.28906  0.58594  0.42189  1.0000
  C   C83       1.0  0.28048  0.59452  0.35783  1.0000
  C   C84       1.0  0.30392  0.57107  0.31094  1.0000
  H   H27       1.0  0.35353  0.52146  0.29294  1.0000
  O   O53       1.0  0.37336  0.50164  0.40761  1.0000
  O   O54       1.0  0.32882  0.54620  0.49670  1.0000
  H   H28       1.0  0.27148  0.60353  0.45706  1.0000
  O   O55       1.0  0.25165  0.62335  0.34239  1.0000
  O   O56       1.0  0.29619  0.57879  0.25329  1.0000
  C   C85       1.0  0.21094  0.58594  0.07811  1.0000
  C   C86       1.0  0.17891  0.55392  0.06095  1.0000
  C   C87       1.0  0.15547  0.53047  0.10784  1.0000
  C   C88       1.0  0.16405  0.53905  0.17189  1.0000
  C   C89       1.0  0.19608  0.57107  0.18906  1.0000
  C   C90       1.0  0.21952  0.59452  0.14217  1.0000
  H   H29       1.0  0.22852  0.60353  0.04294  1.0000
  O   O57       1.0  0.17118  0.54620  0.00330  1.0000
  O   O58       1.0  0.12664  0.50164  0.09239  1.0000
  H   H30       1.0  0.14647  0.52146  0.20706  1.0000
  O   O59       1.0  0.20381  0.57879  0.24671  1.0000
  O   O60       1.0  0.24835  0.62335  0.15761  1.0000
  C   C91       1.0  0.16405  0.46095  0.82821  1.0000
  C   C92       1.0  0.19608  0.42893  0.81104  1.0000
  C   C93       1.0  0.21952  0.40548  0.85793  1.0000
  C   C94       1.0  0.21094  0.41406  0.92199  1.0000
  C   C95       1.0  0.17891  0.44608  0.93915  1.0000
  C   C96       1.0  0.15547  0.46953  0.89226  1.0000
  H   H31       1.0  0.14647  0.47854  0.79304  1.0000
  O   O61       1.0  0.20381  0.42121  0.75339  1.0000
  O   O62       1.0  0.24835  0.37665  0.84249  1.0000
  H   H32       1.0  0.22852  0.39647  0.95716  1.0000
  O   O63       1.0  0.17118  0.45380  0.99680  1.0000
  O   O64       1.0  0.12664  0.49836  0.90771  1.0000
  C   C97       1.0  0.99990  0.95320  0.00010  1.0000
  C   C98       1.0  0.04061  0.97665  0.00010  1.0000
  C   C99       1.0  0.04061  0.02355  0.00010  1.0000
  C   C100      1.0  0.99990  0.04700  0.00010  1.0000
  C   C101      1.0  0.95939  0.02355  0.00010  1.0000
  C   C102      1.0  0.95939  0.97665  0.00010  1.0000
  H   H33       1.0  0.99990  0.91803  0.00010  1.0000
  O   O65       1.0  0.07715  0.95555  0.00010  1.0000
  O   O66       1.0  0.07715  0.04465  0.00010  1.0000
  H   H34       1.0  0.99990  0.08217  0.00010  1.0000
  O   O67       1.0  0.92285  0.04465  0.00010  1.0000
  O   O68       1.0  0.92285  0.95555  0.00010  1.0000
  C   C103      1.0  0.29689  0.75000  0.25000  1.0000
  C   C104      1.0  0.27344  0.79061  0.25000  1.0000
  C   C105      1.0  0.22656  0.79061  0.25000  1.0000
  C   C106      1.0  0.20311  0.75000  0.25000  1.0000
  C   C107      1.0  0.22656  0.70939  0.25000  1.0000
  C   C108      1.0  0.27344  0.70939  0.25000  1.0000
  H   H35       1.0  0.33205  0.75000  0.24999  1.0000
  O   O69       1.0  0.29454  0.82716  0.25000  1.0000
  O   O70       1.0  0.20546  0.82717  0.25000  1.0000
  H   H36       1.0  0.16795  0.75000  0.25001  1.0000
  O   O71       1.0  0.20546  0.67284  0.25000  1.0000
  O   O72       1.0  0.29454  0.67283  0.25000  1.0000
  C   C109      1.0  0.50000  0.95320  0.50000  1.0000
  C   C110      1.0  0.54061  0.97665  0.50000  1.0000
  C   C111      1.0  0.54061  0.02355  0.50000  1.0000
  C   C112      1.0  0.50000  0.04700  0.50000  1.0000
  C   C113      1.0  0.45939  0.02355  0.50000  1.0000
  C   C114      1.0  0.45939  0.97665  0.50000  1.0000
  H   H37       1.0  0.50000  0.91803  0.49999  1.0000
  O   O73       1.0  0.57715  0.95555  0.50000  1.0000
  O   O74       1.0  0.57715  0.04465  0.50000  1.0000
  H   H38       1.0  0.50000  0.08217  0.50001  1.0000
  O   O75       1.0  0.42285  0.04465  0.50000  1.0000
  O   O76       1.0  0.42285  0.95555  0.50000  1.0000
  C   C115      1.0  0.20311  0.25000  0.75000  1.0000
  C   C116      1.0  0.22656  0.20939  0.75000  1.0000
  C   C117      1.0  0.27344  0.20939  0.75000  1.0000
  C   C118      1.0  0.29689  0.25000  0.75000  1.0000
  C   C119      1.0  0.27344  0.29061  0.75000  1.0000
  C   C120      1.0  0.22656  0.29061  0.75000  1.0000
  H   H39       1.0  0.16795  0.25000  0.74999  1.0000
  O   O77       1.0  0.20546  0.17284  0.75000  1.0000
  O   O78       1.0  0.29454  0.17284  0.75000  1.0000
  H   H40       1.0  0.33205  0.25000  0.75001  1.0000
  O   O79       1.0  0.29454  0.32717  0.75000  1.0000
  O   O80       1.0  0.20546  0.32717  0.75000  1.0000
  C   C121      1.0  0.70311  0.25000  0.75000  1.0000
  C   C122      1.0  0.72656  0.20939  0.75000  1.0000
  C   C123      1.0  0.77344  0.20939  0.75000  1.0000
  C   C124      1.0  0.79689  0.25000  0.75000  1.0000
  C   C125      1.0  0.77344  0.29061  0.75000  1.0000
  C   C126      1.0  0.72656  0.29061  0.75000  1.0000
  H   H41       1.0  0.66795  0.25000  0.74999  1.0000
  O   O81       1.0  0.70546  0.17284  0.75000  1.0000
  O   O82       1.0  0.79454  0.17284  0.75000  1.0000
  H   H42       1.0  0.83205  0.25000  0.75001  1.0000
  O   O83       1.0  0.79454  0.32717  0.75000  1.0000
  O   O84       1.0  0.70546  0.32717  0.75000  1.0000
  C   C127      1.0  0.70311  0.75000  0.25000  1.0000
  C   C128      1.0  0.72656  0.70939  0.25000  1.0000
  C   C129      1.0  0.77344  0.70939  0.25000  1.0000
  C   C130      1.0  0.79689  0.75000  0.25000  1.0000
  C   C131      1.0  0.77344  0.79061  0.25000  1.0000
  C   C132      1.0  0.72656  0.79061  0.25000  1.0000
  H   H43       1.0  0.66795  0.75000  0.25001  1.0000
  O   O85       1.0  0.70546  0.67283  0.25000  1.0000
  O   O86       1.0  0.79454  0.67284  0.25000  1.0000
  H   H44       1.0  0.83205  0.75000  0.24999  1.0000
  O   O87       1.0  0.79454  0.82716  0.25000  1.0000
  O   O88       1.0  0.70546  0.82716  0.25000  1.0000
  C   C133      1.0  0.50000  0.45310  0.50000  1.0000
  C   C134      1.0  0.54061  0.47655  0.50000  1.0000
  C   C135      1.0  0.54061  0.52345  0.50000  1.0000
  C   C136      1.0  0.50000  0.54690  0.50000  1.0000
  C   C137      1.0  0.45939  0.52345  0.50000  1.0000
  C   C138      1.0  0.45939  0.47655  0.50000  1.0000
  H   H45       1.0  0.50000  0.41793  0.50001  1.0000
  O   O89       1.0  0.57715  0.45545  0.50000  1.0000
  O   O90       1.0  0.57715  0.54455  0.50000  1.0000
  H   H46       1.0  0.50000  0.58207  0.49999  1.0000
  O   O91       1.0  0.42285  0.54455  0.50000  1.0000
  O   O92       1.0  0.42285  0.45545  0.50000  1.0000
  C   C139      1.0  0.00010  0.45310  0.00010  1.0000
  C   C140      1.0  0.04061  0.47655  0.00010  1.0000
  C   C141      1.0  0.04061  0.52345  0.00010  1.0000
  C   C142      1.0  0.99990  0.54690  0.00010  1.0000
  C   C143      1.0  0.95939  0.52345  0.00010  1.0000
  C   C144      1.0  0.95939  0.47655  0.00010  1.0000
  H   H47       1.0  0.00010  0.41793  0.00010  1.0000
  O   O93       1.0  0.07715  0.45545  0.00010  1.0000
  O   O94       1.0  0.07715  0.54455  0.00010  1.0000
  H   H48       1.0  0.99990  0.58207  0.00010  1.0000
  O   O95       1.0  0.92285  0.54455  0.00010  1.0000
  O   O96       1.0  0.92285  0.45545  0.00010  1.0000
