data_image0
_chemical_formula_structural       C26H7O2H2O2HC4HO2HFeC26H7O2H2O2HC4HO2HFeC26H7O2H2O2HC4HO2HFeC26H7O2H2O2HC4HO2HFeC26H7O2H2O2HC4HO2HFeC26H7O2H2O2HC4HO2HFeC26H7O2H2O2HC4HO2HFeC26H7O2H2O2HC4HO2HFeCuC6HO2HO2CuC6HO2HO2C6HO2HO2C6HO2HO2Cu2
_chemical_formula_sum              "C264 H104 O64 Fe8 Cu4"
_cell_length_a       56.282
_cell_length_b       33.7412
_cell_length_c       26.6029
_cell_angle_alpha    89.9999
_cell_angle_beta     90
_cell_angle_gamma    90

_space_group_name_H-M_alt    "P 1"
_space_group_IT_number       1

loop_
  _space_group_symop_operation_xyz
  'x, y, z'

loop_
  _atom_site_type_symbol
  _atom_site_label
  _atom_site_symmetry_multiplicity
  _atom_site_fract_x
  _atom_site_fract_y
  _atom_site_fract_z
  _atom_site_occupancy
  C   C1        1.0  0.16645  0.97374  0.04737  1.0000
  C   C2        1.0  0.19013  0.98692  0.02374  1.0000
  C   C3        1.0  0.19013  0.01327  0.97648  1.0000
  C   C4        1.0  0.16645  0.02645  0.95284  1.0000
  C   C5        1.0  0.14275  0.01327  0.97648  1.0000
  C   C6        1.0  0.14275  0.98692  0.02374  1.0000
  C   C7        1.0  0.16645  0.05280  0.90558  1.0000
  C   C8        1.0  0.19013  0.06598  0.88195  1.0000
  C   C9        1.0  0.21383  0.05280  0.90558  1.0000
  C   C10       1.0  0.21383  0.02645  0.95284  1.0000
  C   C11       1.0  0.16645  0.94739  0.09463  1.0000
  C   C12       1.0  0.19013  0.93421  0.11827  1.0000
  C   C13       1.0  0.21383  0.94739  0.09463  1.0000
  C   C14       1.0  0.21383  0.97374  0.04737  1.0000
  C   C15       1.0  0.11904  0.97374  0.04737  1.0000
  C   C16       1.0  0.09536  0.98692  0.02374  1.0000
  C   C17       1.0  0.09536  0.01327  0.97648  1.0000
  C   C18       1.0  0.11904  0.02645  0.95284  1.0000
  C   C19       1.0  0.07166  0.02645  0.95284  1.0000
  C   C20       1.0  0.04795  0.01327  0.97648  1.0000
  C   C21       1.0  0.04795  0.98692  0.02374  1.0000
  C   C22       1.0  0.07166  0.97374  0.04737  1.0000
  C   C23       1.0  0.23754  0.06598  0.88195  1.0000
  C   C24       1.0  0.23754  0.09233  0.83468  1.0000
  C   C25       1.0  0.21383  0.10551  0.81105  1.0000
  C   C26       1.0  0.19013  0.09233  0.83468  1.0000
  H   H1        1.0  0.14889  0.06256  0.88809  1.0000
  H   H2        1.0  0.23137  0.01670  0.97034  1.0000
  H   H3        1.0  0.14889  0.93763  0.11213  1.0000
  H   H4        1.0  0.23137  0.98350  0.02988  1.0000
  H   H5        1.0  0.11904  0.95423  0.08236  1.0000
  H   H6        1.0  0.11904  0.04596  0.91786  1.0000
  H   H7        1.0  0.07166  0.04596  0.91786  1.0000
  O   O1        1.0  0.02487  0.02611  0.95346  1.0000
  O   O2        1.0  0.02487  0.97408  0.04676  1.0000
  H   H8        1.0  0.07166  0.95423  0.08236  1.0000
  H   H9        1.0  0.25507  0.05623  0.89944  1.0000
  O   O3        1.0  0.26062  0.10517  0.81167  1.0000
  O   O4        1.0  0.21383  0.13118  0.76502  1.0000
  H   H10       1.0  0.17260  0.10209  0.81719  1.0000
  C   C27       1.0  0.23754  0.93421  0.11827  1.0000
  C   C28       1.0  0.23754  0.90786  0.16553  1.0000
  C   C29       1.0  0.21383  0.89468  0.18916  1.0000
  C   C30       1.0  0.19013  0.90786  0.16553  1.0000
  H   H11       1.0  0.25507  0.94397  0.10077  1.0000
  O   O5        1.0  0.26062  0.89502  0.18855  1.0000
  O   O6        1.0  0.21383  0.86901  0.23520  1.0000
  H   H12       1.0  0.17260  0.89810  0.18302  1.0000
  Fe  Fe1       1.0  0.25001  0.86061  0.24999  1.0000
  C   C31       1.0  0.30986  0.98692  0.47635  1.0000
  C   C32       1.0  0.33355  0.97375  0.45274  1.0000
  C   C33       1.0  0.35725  0.98693  0.47637  1.0000
  C   C34       1.0  0.35726  0.01327  0.52362  1.0000
  C   C35       1.0  0.33356  0.02645  0.54726  1.0000
  C   C36       1.0  0.30986  0.01327  0.52363  1.0000
  C   C37       1.0  0.38095  0.02644  0.54725  1.0000
  C   C38       1.0  0.40464  0.01328  0.52364  1.0000
  C   C39       1.0  0.40465  0.98692  0.47636  1.0000
  C   C40       1.0  0.38095  0.97374  0.45273  1.0000
  C   C41       1.0  0.28617  0.97374  0.45272  1.0000
  C   C42       1.0  0.28616  0.94740  0.40547  1.0000
  C   C43       1.0  0.30986  0.93422  0.38183  1.0000
  C   C44       1.0  0.33356  0.94739  0.40547  1.0000
  C   C45       1.0  0.28616  0.02645  0.54727  1.0000
  C   C46       1.0  0.28617  0.05280  0.59451  1.0000
  C   C47       1.0  0.30986  0.06597  0.61815  1.0000
  C   C48       1.0  0.33355  0.05281  0.59453  1.0000
  C   C49       1.0  0.30986  0.09233  0.66542  1.0000
  C   C50       1.0  0.28616  0.10551  0.68906  1.0000
  C   C51       1.0  0.26247  0.09233  0.66543  1.0000
  C   C52       1.0  0.26247  0.06598  0.61815  1.0000
  C   C53       1.0  0.42835  0.97374  0.45272  1.0000
  C   C54       1.0  0.45204  0.98692  0.47635  1.0000
  C   C55       1.0  0.45204  0.01327  0.52363  1.0000
  C   C56       1.0  0.42834  0.02645  0.54727  1.0000
  H   H13       1.0  0.38095  0.04596  0.58226  1.0000
  H   H14       1.0  0.38095  0.95424  0.41775  1.0000
  H   H15       1.0  0.26862  0.98350  0.47023  1.0000
  H   H16       1.0  0.35110  0.93764  0.38798  1.0000
  H   H17       1.0  0.26862  0.01670  0.52977  1.0000
  H   H18       1.0  0.35110  0.06256  0.61203  1.0000
  H   H19       1.0  0.32740  0.10208  0.68291  1.0000
  O   O7        1.0  0.28616  0.13118  0.73510  1.0000
  O   O8        1.0  0.23939  0.10517  0.68844  1.0000
  H   H20       1.0  0.24493  0.05622  0.60066  1.0000
  H   H21       1.0  0.42834  0.95424  0.41774  1.0000
  O   O9        1.0  0.47512  0.97408  0.45334  1.0000
  O   O10       1.0  0.47512  0.02611  0.54665  1.0000
  H   H22       1.0  0.42834  0.04596  0.58225  1.0000
  C   C57       1.0  0.30986  0.90786  0.33456  1.0000
  C   C58       1.0  0.28617  0.89468  0.31093  1.0000
  C   C59       1.0  0.26247  0.90786  0.33457  1.0000
  C   C60       1.0  0.26246  0.93422  0.38184  1.0000
  H   H23       1.0  0.32740  0.89811  0.31707  1.0000
  O   O11       1.0  0.28617  0.86902  0.26489  1.0000
  O   O12       1.0  0.23939  0.89503  0.31155  1.0000
  H   H24       1.0  0.24493  0.94397  0.39933  1.0000
  Fe  Fe2       1.0  0.25001  0.13939  0.75001  1.0000
  C   C61       1.0  0.83355  0.02646  0.95283  1.0000
  C   C62       1.0  0.80987  0.01328  0.97646  1.0000
  C   C63       1.0  0.80987  0.98693  0.02372  1.0000
  C   C64       1.0  0.83355  0.97375  0.04736  1.0000
  C   C65       1.0  0.85725  0.98693  0.02372  1.0000
  C   C66       1.0  0.85725  0.01328  0.97646  1.0000
  C   C67       1.0  0.83355  0.94740  0.09462  1.0000
  C   C68       1.0  0.80987  0.93422  0.11825  1.0000
  C   C69       1.0  0.78617  0.94740  0.09462  1.0000
  C   C70       1.0  0.78617  0.97375  0.04736  1.0000
  C   C71       1.0  0.83355  0.05281  0.90557  1.0000
  C   C72       1.0  0.80987  0.06599  0.88193  1.0000
  C   C73       1.0  0.78617  0.05281  0.90557  1.0000
  C   C74       1.0  0.78617  0.02646  0.95283  1.0000
  C   C75       1.0  0.88096  0.02646  0.95283  1.0000
  C   C76       1.0  0.90464  0.01328  0.97646  1.0000
  C   C77       1.0  0.90464  0.98693  0.02372  1.0000
  C   C78       1.0  0.88096  0.97375  0.04736  1.0000
  C   C79       1.0  0.92834  0.97375  0.04736  1.0000
  C   C80       1.0  0.95205  0.98693  0.02372  1.0000
  C   C81       1.0  0.95205  0.01328  0.97646  1.0000
  C   C82       1.0  0.92834  0.02646  0.95283  1.0000
  C   C83       1.0  0.76246  0.93422  0.11825  1.0000
  C   C84       1.0  0.76246  0.90787  0.16552  1.0000
  C   C85       1.0  0.78617  0.89469  0.18915  1.0000
  C   C86       1.0  0.80987  0.90787  0.16552  1.0000
  H   H25       1.0  0.85111  0.93764  0.11211  1.0000
  H   H26       1.0  0.76863  0.98350  0.02986  1.0000
  H   H27       1.0  0.85111  0.06257  0.88807  1.0000
  H   H28       1.0  0.76863  0.01670  0.97032  1.0000
  H   H29       1.0  0.88096  0.04597  0.91784  1.0000
  H   H30       1.0  0.88096  0.95424  0.08234  1.0000
  H   H31       1.0  0.92834  0.95424  0.08234  1.0000
  O   O13       1.0  0.97513  0.97409  0.04674  1.0000
  O   O14       1.0  0.97513  0.02612  0.95344  1.0000
  H   H32       1.0  0.92834  0.04597  0.91784  1.0000
  H   H33       1.0  0.74493  0.94397  0.10076  1.0000
  O   O15       1.0  0.73938  0.89503  0.18853  1.0000
  O   O16       1.0  0.78617  0.86902  0.23518  1.0000
  H   H34       1.0  0.82740  0.89811  0.18301  1.0000
  C   C87       1.0  0.76246  0.06599  0.88193  1.0000
  C   C88       1.0  0.76246  0.09234  0.83467  1.0000
  C   C89       1.0  0.78617  0.10552  0.81104  1.0000
  C   C90       1.0  0.80987  0.09234  0.83467  1.0000
  H   H35       1.0  0.74493  0.05623  0.89943  1.0000
  O   O17       1.0  0.73938  0.10518  0.81165  1.0000
  O   O18       1.0  0.78617  0.13119  0.76500  1.0000
  H   H36       1.0  0.82740  0.10210  0.81718  1.0000
  Fe  Fe3       1.0  0.74999  0.13939  0.75001  1.0000
  C   C91       1.0  0.66645  0.97374  0.45273  1.0000
  C   C92       1.0  0.69013  0.98692  0.47636  1.0000
  C   C93       1.0  0.69013  0.01327  0.52363  1.0000
  C   C94       1.0  0.66645  0.02645  0.54726  1.0000
  C   C95       1.0  0.64275  0.01327  0.52363  1.0000
  C   C96       1.0  0.64275  0.98692  0.47636  1.0000
  C   C97       1.0  0.66645  0.05280  0.59452  1.0000
  C   C98       1.0  0.69013  0.06598  0.61815  1.0000
  C   C99       1.0  0.71383  0.05280  0.59452  1.0000
  C   C100      1.0  0.71383  0.02645  0.54726  1.0000
  C   C101      1.0  0.66645  0.94739  0.40546  1.0000
  C   C102      1.0  0.69013  0.93422  0.38183  1.0000
  C   C103      1.0  0.71383  0.94739  0.40546  1.0000
  C   C104      1.0  0.71383  0.97374  0.45273  1.0000
  C   C105      1.0  0.61904  0.97374  0.45273  1.0000
  C   C106      1.0  0.59536  0.98692  0.47636  1.0000
  C   C107      1.0  0.59536  0.01327  0.52363  1.0000
  C   C108      1.0  0.61904  0.02645  0.54726  1.0000
  C   C109      1.0  0.57166  0.02645  0.54726  1.0000
  C   C110      1.0  0.54796  0.01327  0.52363  1.0000
  C   C111      1.0  0.54796  0.98692  0.47636  1.0000
  C   C112      1.0  0.57166  0.97374  0.45273  1.0000
  C   C113      1.0  0.73754  0.06598  0.61815  1.0000
  C   C114      1.0  0.73754  0.09233  0.66542  1.0000
  C   C115      1.0  0.71383  0.10551  0.68905  1.0000
  C   C116      1.0  0.69013  0.09233  0.66542  1.0000
  H   H37       1.0  0.64889  0.06255  0.61202  1.0000
  H   H38       1.0  0.73137  0.01669  0.52976  1.0000
  H   H39       1.0  0.64889  0.93764  0.38797  1.0000
  H   H40       1.0  0.73137  0.98350  0.47022  1.0000
  H   H41       1.0  0.61904  0.95424  0.41774  1.0000
  H   H42       1.0  0.61904  0.04596  0.58225  1.0000
  H   H43       1.0  0.57166  0.04596  0.58225  1.0000
  O   O19       1.0  0.52488  0.02611  0.54664  1.0000
  O   O20       1.0  0.52488  0.97409  0.45334  1.0000
  H   H44       1.0  0.57166  0.95424  0.41774  1.0000
  H   H45       1.0  0.75507  0.05622  0.60066  1.0000
  O   O21       1.0  0.76062  0.10516  0.68844  1.0000
  O   O22       1.0  0.71383  0.13117  0.73509  1.0000
  H   H46       1.0  0.67260  0.10208  0.68291  1.0000
  C   C117      1.0  0.73754  0.93422  0.38183  1.0000
  C   C118      1.0  0.73754  0.90786  0.33457  1.0000
  C   C119      1.0  0.71383  0.89469  0.31093  1.0000
  C   C120      1.0  0.69013  0.90786  0.33457  1.0000
  H   H47       1.0  0.75507  0.94397  0.39933  1.0000
  O   O23       1.0  0.76062  0.89503  0.31155  1.0000
  O   O24       1.0  0.71383  0.86902  0.26490  1.0000
  H   H48       1.0  0.67260  0.89811  0.31707  1.0000
  Fe  Fe4       1.0  0.74999  0.86061  0.24999  1.0000
  C   C121      1.0  0.66644  0.47364  0.54727  1.0000
  C   C122      1.0  0.69012  0.48682  0.52364  1.0000
  C   C123      1.0  0.69012  0.51317  0.47637  1.0000
  C   C124      1.0  0.66644  0.52635  0.45274  1.0000
  C   C125      1.0  0.64274  0.51317  0.47637  1.0000
  C   C126      1.0  0.64274  0.48682  0.52364  1.0000
  C   C127      1.0  0.66644  0.55270  0.40548  1.0000
  C   C128      1.0  0.69012  0.56588  0.38184  1.0000
  C   C129      1.0  0.71383  0.55270  0.40548  1.0000
  C   C130      1.0  0.71383  0.52635  0.45274  1.0000
  C   C131      1.0  0.66644  0.44729  0.59454  1.0000
  C   C132      1.0  0.69012  0.43412  0.61817  1.0000
  C   C133      1.0  0.71383  0.44729  0.59454  1.0000
  C   C134      1.0  0.71383  0.47364  0.54727  1.0000
  C   C135      1.0  0.61904  0.47364  0.54727  1.0000
  C   C136      1.0  0.59535  0.48682  0.52364  1.0000
  C   C137      1.0  0.59535  0.51317  0.47637  1.0000
  C   C138      1.0  0.61904  0.52635  0.45274  1.0000
  C   C139      1.0  0.57165  0.52635  0.45274  1.0000
  C   C140      1.0  0.54795  0.51317  0.47637  1.0000
  C   C141      1.0  0.54795  0.48682  0.52364  1.0000
  C   C142      1.0  0.57165  0.47364  0.54727  1.0000
  C   C143      1.0  0.73753  0.56588  0.38184  1.0000
  C   C144      1.0  0.73753  0.59223  0.33458  1.0000
  C   C145      1.0  0.71383  0.60540  0.31095  1.0000
  C   C146      1.0  0.69012  0.59223  0.33458  1.0000
  H   H49       1.0  0.64889  0.56245  0.38798  1.0000
  H   H50       1.0  0.73136  0.51659  0.47024  1.0000
  H   H51       1.0  0.64889  0.43754  0.61203  1.0000
  H   H52       1.0  0.73136  0.48340  0.52978  1.0000
  H   H53       1.0  0.61904  0.45414  0.58226  1.0000
  H   H54       1.0  0.61904  0.54586  0.41775  1.0000
  H   H55       1.0  0.57165  0.54586  0.41775  1.0000
  O   O25       1.0  0.52487  0.52601  0.45336  1.0000
  O   O26       1.0  0.52487  0.47399  0.54666  1.0000
  H   H56       1.0  0.57165  0.45414  0.58226  1.0000
  H   H57       1.0  0.75506  0.55612  0.39934  1.0000
  O   O27       1.0  0.76061  0.60506  0.31156  1.0000
  O   O28       1.0  0.71383  0.63107  0.26491  1.0000
  H   H58       1.0  0.67259  0.60198  0.31709  1.0000
  C   C147      1.0  0.73753  0.43412  0.61817  1.0000
  C   C148      1.0  0.73753  0.40776  0.66543  1.0000
  C   C149      1.0  0.71383  0.39459  0.68907  1.0000
  C   C150      1.0  0.69012  0.40776  0.66543  1.0000
  H   H59       1.0  0.75506  0.44387  0.60067  1.0000
  O   O29       1.0  0.76061  0.39493  0.68845  1.0000
  O   O30       1.0  0.71383  0.36892  0.73510  1.0000
  H   H60       1.0  0.67259  0.39801  0.68293  1.0000
  Fe  Fe5       1.0  0.75000  0.36061  0.75001  1.0000
  C   C151      1.0  0.80987  0.48681  0.97645  1.0000
  C   C152      1.0  0.83356  0.47365  0.95284  1.0000
  C   C153      1.0  0.85726  0.48682  0.97647  1.0000
  C   C154      1.0  0.85726  0.51317  0.02372  1.0000
  C   C155      1.0  0.83356  0.52635  0.04736  1.0000
  C   C156      1.0  0.80987  0.51317  0.02372  1.0000
  C   C157      1.0  0.88096  0.52635  0.04735  1.0000
  C   C158      1.0  0.90465  0.51318  0.02373  1.0000
  C   C159      1.0  0.90465  0.48682  0.97646  1.0000
  C   C160      1.0  0.88095  0.47364  0.95283  1.0000
  C   C161      1.0  0.78617  0.47364  0.95282  1.0000
  C   C162      1.0  0.78617  0.44729  0.90558  1.0000
  C   C163      1.0  0.80987  0.43411  0.88194  1.0000
  C   C164      1.0  0.83356  0.44729  0.90557  1.0000
  C   C165      1.0  0.78617  0.52636  0.04737  1.0000
  C   C166      1.0  0.78617  0.55270  0.09461  1.0000
  C   C167      1.0  0.80987  0.56588  0.11824  1.0000
  C   C168      1.0  0.83356  0.55271  0.09463  1.0000
  C   C169      1.0  0.80987  0.59223  0.16551  1.0000
  C   C170      1.0  0.78617  0.60542  0.18915  1.0000
  C   C171      1.0  0.76247  0.59224  0.16552  1.0000
  C   C172      1.0  0.76247  0.56588  0.11825  1.0000
  C   C173      1.0  0.92835  0.47364  0.95282  1.0000
  C   C174      1.0  0.95205  0.48682  0.97645  1.0000
  C   C175      1.0  0.95204  0.51317  0.02373  1.0000
  C   C176      1.0  0.92834  0.52636  0.04737  1.0000
  H   H61       1.0  0.88095  0.54587  0.08235  1.0000
  H   H62       1.0  0.88095  0.45414  0.91785  1.0000
  H   H63       1.0  0.76862  0.48340  0.97033  1.0000
  H   H64       1.0  0.85110  0.43754  0.88808  1.0000
  H   H65       1.0  0.76863  0.51660  0.02987  1.0000
  H   H66       1.0  0.85110  0.56246  0.11212  1.0000
  H   H67       1.0  0.82741  0.60199  0.18301  1.0000
  O   O31       1.0  0.78617  0.63109  0.23519  1.0000
  O   O32       1.0  0.73939  0.60507  0.18854  1.0000
  H   H68       1.0  0.74493  0.55613  0.10076  1.0000
  H   H69       1.0  0.92835  0.45413  0.91784  1.0000
  O   O33       1.0  0.97513  0.47398  0.95344  1.0000
  O   O34       1.0  0.97512  0.52601  0.04674  1.0000
  H   H70       1.0  0.92835  0.54586  0.08235  1.0000
  C   C177      1.0  0.80987  0.40775  0.83466  1.0000
  C   C178      1.0  0.78617  0.39458  0.81103  1.0000
  C   C179      1.0  0.76247  0.40776  0.83467  1.0000
  C   C180      1.0  0.76247  0.43412  0.88194  1.0000
  H   H71       1.0  0.82741  0.39800  0.81718  1.0000
  O   O35       1.0  0.78617  0.36891  0.76500  1.0000
  O   O36       1.0  0.73939  0.39492  0.81166  1.0000
  H   H72       1.0  0.74493  0.44387  0.89943  1.0000
  Fe  Fe6       1.0  0.75000  0.63939  0.24999  1.0000
  C   C181      1.0  0.33356  0.52636  0.45273  1.0000
  C   C182      1.0  0.30988  0.51318  0.47636  1.0000
  C   C183      1.0  0.30988  0.48683  0.52363  1.0000
  C   C184      1.0  0.33356  0.47365  0.54726  1.0000
  C   C185      1.0  0.35726  0.48683  0.52363  1.0000
  C   C186      1.0  0.35726  0.51318  0.47636  1.0000
  C   C187      1.0  0.33356  0.44730  0.59452  1.0000
  C   C188      1.0  0.30988  0.43412  0.61816  1.0000
  C   C189      1.0  0.28617  0.44730  0.59452  1.0000
  C   C190      1.0  0.28617  0.47365  0.54726  1.0000
  C   C191      1.0  0.33356  0.55271  0.40546  1.0000
  C   C192      1.0  0.30988  0.56588  0.38183  1.0000
  C   C193      1.0  0.28617  0.55271  0.40546  1.0000
  C   C194      1.0  0.28617  0.52636  0.45273  1.0000
  C   C195      1.0  0.38096  0.52636  0.45273  1.0000
  C   C196      1.0  0.40465  0.51318  0.47636  1.0000
  C   C197      1.0  0.40465  0.48683  0.52363  1.0000
  C   C198      1.0  0.38096  0.47365  0.54726  1.0000
  C   C199      1.0  0.42835  0.47365  0.54726  1.0000
  C   C200      1.0  0.45205  0.48683  0.52363  1.0000
  C   C201      1.0  0.45205  0.51318  0.47636  1.0000
  C   C202      1.0  0.42835  0.52636  0.45273  1.0000
  C   C203      1.0  0.26247  0.43412  0.61816  1.0000
  C   C204      1.0  0.26247  0.40777  0.66542  1.0000
  C   C205      1.0  0.28617  0.39460  0.68905  1.0000
  C   C206      1.0  0.30988  0.40777  0.66542  1.0000
  H   H73       1.0  0.35111  0.43755  0.61202  1.0000
  H   H74       1.0  0.26864  0.48341  0.52976  1.0000
  H   H75       1.0  0.35111  0.56246  0.38797  1.0000
  H   H76       1.0  0.26864  0.51660  0.47022  1.0000
  H   H77       1.0  0.38096  0.54586  0.41774  1.0000
  H   H78       1.0  0.38096  0.45414  0.58225  1.0000
  H   H79       1.0  0.42835  0.45414  0.58225  1.0000
  O   O37       1.0  0.47513  0.47399  0.54664  1.0000
  O   O38       1.0  0.47513  0.52601  0.45334  1.0000
  H   H80       1.0  0.42835  0.54586  0.41774  1.0000
  H   H81       1.0  0.24494  0.44388  0.60066  1.0000
  O   O39       1.0  0.23939  0.39494  0.68844  1.0000
  O   O40       1.0  0.28617  0.36893  0.73509  1.0000
  H   H82       1.0  0.32741  0.39802  0.68291  1.0000
  C   C207      1.0  0.26247  0.56588  0.38183  1.0000
  C   C208      1.0  0.26247  0.59224  0.33457  1.0000
  C   C209      1.0  0.28617  0.60541  0.31093  1.0000
  C   C210      1.0  0.30988  0.59224  0.33457  1.0000
  H   H83       1.0  0.24494  0.55613  0.39933  1.0000
  O   O41       1.0  0.23939  0.60507  0.31155  1.0000
  O   O42       1.0  0.28617  0.63108  0.26490  1.0000
  H   H84       1.0  0.32741  0.60199  0.31707  1.0000
  Fe  Fe7       1.0  0.25000  0.63939  0.24999  1.0000
  C   C211      1.0  0.16644  0.47364  0.95283  1.0000
  C   C212      1.0  0.19013  0.48682  0.97646  1.0000
  C   C213      1.0  0.19013  0.51317  0.02372  1.0000
  C   C214      1.0  0.16644  0.52635  0.04736  1.0000
  C   C215      1.0  0.14274  0.51317  0.02372  1.0000
  C   C216      1.0  0.14274  0.48682  0.97646  1.0000
  C   C217      1.0  0.16644  0.55270  0.09462  1.0000
  C   C218      1.0  0.19013  0.56588  0.11825  1.0000
  C   C219      1.0  0.21383  0.55270  0.09462  1.0000
  C   C220      1.0  0.21383  0.52635  0.04736  1.0000
  C   C221      1.0  0.16644  0.44729  0.90557  1.0000
  C   C222      1.0  0.19013  0.43411  0.88194  1.0000
  C   C223      1.0  0.21383  0.44729  0.90557  1.0000
  C   C224      1.0  0.21383  0.47364  0.95283  1.0000
  C   C225      1.0  0.11904  0.47364  0.95283  1.0000
  C   C226      1.0  0.09535  0.48682  0.97646  1.0000
  C   C227      1.0  0.09535  0.51317  0.02372  1.0000
  C   C228      1.0  0.11904  0.52635  0.04736  1.0000
  C   C229      1.0  0.07165  0.52635  0.04736  1.0000
  C   C230      1.0  0.04795  0.51317  0.02372  1.0000
  C   C231      1.0  0.04795  0.48682  0.97646  1.0000
  C   C232      1.0  0.07165  0.47364  0.95283  1.0000
  C   C233      1.0  0.23753  0.56588  0.11825  1.0000
  C   C234      1.0  0.23753  0.59223  0.16551  1.0000
  C   C235      1.0  0.21383  0.60541  0.18915  1.0000
  C   C236      1.0  0.19013  0.59223  0.16551  1.0000
  H   H85       1.0  0.14889  0.56246  0.11211  1.0000
  H   H86       1.0  0.23137  0.51660  0.02986  1.0000
  H   H87       1.0  0.14889  0.43753  0.88807  1.0000
  H   H88       1.0  0.23137  0.48340  0.97032  1.0000
  H   H89       1.0  0.11904  0.45413  0.91784  1.0000
  H   H90       1.0  0.11904  0.54586  0.08234  1.0000
  H   H91       1.0  0.07165  0.54586  0.08234  1.0000
  O   O43       1.0  0.02487  0.52601  0.04674  1.0000
  O   O44       1.0  0.02487  0.47398  0.95344  1.0000
  H   H92       1.0  0.07165  0.45413  0.91784  1.0000
  H   H93       1.0  0.25507  0.55613  0.10076  1.0000
  O   O45       1.0  0.26061  0.60507  0.18853  1.0000
  O   O46       1.0  0.21383  0.63108  0.23518  1.0000
  H   H94       1.0  0.17259  0.60199  0.18301  1.0000
  C   C237      1.0  0.23753  0.43411  0.88194  1.0000
  C   C238      1.0  0.23753  0.40776  0.83467  1.0000
  C   C239      1.0  0.21383  0.39458  0.81104  1.0000
  C   C240      1.0  0.19013  0.40776  0.83467  1.0000
  H   H95       1.0  0.25507  0.44387  0.89943  1.0000
  O   O47       1.0  0.26061  0.39492  0.81165  1.0000
  O   O48       1.0  0.21383  0.36891  0.76500  1.0000
  H   H96       1.0  0.17259  0.39800  0.81718  1.0000
  Fe  Fe8       1.0  0.25000  0.36061  0.75001  1.0000
  Cu  Cu1       1.0  0.00010  0.00010  0.00010  1.0000
  C   C241      1.0  0.24172  0.75000  0.29961  1.0000
  C   C242      1.0  0.24586  0.78593  0.27480  1.0000
  C   C243      1.0  0.25415  0.78593  0.22518  1.0000
  C   C244      1.0  0.25830  0.75000  0.20037  1.0000
  C   C245      1.0  0.25415  0.71407  0.22518  1.0000
  C   C246      1.0  0.24586  0.71407  0.27480  1.0000
  H   H97       1.0  0.23550  0.75000  0.33682  1.0000
  O   O49       1.0  0.24213  0.81827  0.29713  1.0000
  O   O50       1.0  0.25788  0.81827  0.20285  1.0000
  H   H98       1.0  0.26451  0.75000  0.16316  1.0000
  O   O51       1.0  0.25788  0.68173  0.20285  1.0000
  O   O52       1.0  0.24213  0.68173  0.29712  1.0000
  Cu  Cu2       1.0  0.50000  0.00010  0.50000  1.0000
  C   C247      1.0  0.25830  0.25000  0.79963  1.0000
  C   C248      1.0  0.25415  0.21407  0.77482  1.0000
  C   C249      1.0  0.24586  0.21407  0.72520  1.0000
  C   C250      1.0  0.24172  0.25000  0.70039  1.0000
  C   C251      1.0  0.24586  0.28593  0.72520  1.0000
  C   C252      1.0  0.25415  0.28593  0.77482  1.0000
  H   H99       1.0  0.26451  0.25000  0.83684  1.0000
  O   O53       1.0  0.25788  0.18173  0.79715  1.0000
  O   O54       1.0  0.24213  0.18173  0.70287  1.0000
  H   H100      1.0  0.23550  0.25000  0.66318  1.0000
  O   O55       1.0  0.24213  0.31827  0.70288  1.0000
  O   O56       1.0  0.25788  0.31827  0.79715  1.0000
  C   C253      1.0  0.75828  0.25000  0.70040  1.0000
  C   C254      1.0  0.75414  0.21407  0.72520  1.0000
  C   C255      1.0  0.74585  0.21407  0.77482  1.0000
  C   C256      1.0  0.74170  0.25000  0.79963  1.0000
  C   C257      1.0  0.74585  0.28593  0.77482  1.0000
  C   C258      1.0  0.75414  0.28593  0.72520  1.0000
  H   H101      1.0  0.76450  0.25000  0.66318  1.0000
  O   O57       1.0  0.75787  0.18173  0.70287  1.0000
  O   O58       1.0  0.74212  0.18173  0.79715  1.0000
  H   H102      1.0  0.73549  0.25000  0.83684  1.0000
  O   O59       1.0  0.74212  0.31827  0.79715  1.0000
  O   O60       1.0  0.75787  0.31827  0.70288  1.0000
  C   C259      1.0  0.75829  0.75000  0.29960  1.0000
  C   C260      1.0  0.75414  0.71407  0.27480  1.0000
  C   C261      1.0  0.74585  0.71407  0.22518  1.0000
  C   C262      1.0  0.74170  0.75000  0.20037  1.0000
  C   C263      1.0  0.74585  0.78593  0.22518  1.0000
  C   C264      1.0  0.75414  0.78593  0.27480  1.0000
  H   H103      1.0  0.76450  0.75000  0.33682  1.0000
  O   O61       1.0  0.75787  0.68173  0.29712  1.0000
  O   O62       1.0  0.74212  0.68173  0.20285  1.0000
  H   H104      1.0  0.73548  0.75000  0.16316  1.0000
  O   O63       1.0  0.74212  0.81827  0.20285  1.0000
  O   O64       1.0  0.75787  0.81827  0.29713  1.0000
  Cu  Cu3       1.0  0.50000  0.50000  0.50000  1.0000
  Cu  Cu4       1.0  0.99990  0.50000  0.00010  1.0000
