data_image0
_chemical_formula_structural       C18HO2H2O2H2O2HFeC18HO2H2O2H2O2HFeC18HO2H2O2H2O2HFeC18HO2H2O2H2O2HFeC18HO2H2O2H2O2HFeC18HO2H2O2H2O2HFeC18HO2H2O2H2O2HFeC18HO2H2O2H2O2HFeCuC6HO2HO2CuC6HO2HO2C6HO2HO2C6HO2HO2Cu2
_chemical_formula_sum              "C168 H56 O64 Fe8 Cu4"
_cell_length_a       36.8476
_cell_length_b       27.2628
_cell_length_c       17.443
_cell_angle_alpha    89.9958
_cell_angle_beta     90
_cell_angle_gamma    90

_space_group_name_H-M_alt    "P 1"
_space_group_IT_number       1

loop_
  _space_group_symop_operation_xyz
  'x, y, z'

loop_
  _atom_site_type_symbol
  _atom_site_label
  _atom_site_symmetry_multiplicity
  _atom_site_fract_x
  _atom_site_fract_y
  _atom_site_fract_z
  _atom_site_occupancy
  C   C1        1.0  0.16632  0.97045  0.06563  1.0000
  C   C2        1.0  0.19922  0.98527  0.03287  1.0000
  C   C3        1.0  0.19922  0.01493  0.96733  1.0000
  C   C4        1.0  0.16632  0.02975  0.93457  1.0000
  C   C5        1.0  0.13342  0.01493  0.96733  1.0000
  C   C6        1.0  0.13342  0.98527  0.03287  1.0000
  C   C7        1.0  0.16632  0.05940  0.86903  1.0000
  C   C8        1.0  0.19922  0.07423  0.83627  1.0000
  C   C9        1.0  0.23213  0.05940  0.86903  1.0000
  C   C10       1.0  0.23213  0.02975  0.93457  1.0000
  C   C11       1.0  0.16632  0.94080  0.13117  1.0000
  C   C12       1.0  0.19922  0.92597  0.16393  1.0000
  C   C13       1.0  0.23213  0.94080  0.13117  1.0000
  C   C14       1.0  0.23213  0.97045  0.06563  1.0000
  C   C15       1.0  0.10051  0.97045  0.06563  1.0000
  C   C16       1.0  0.06761  0.98527  0.03287  1.0000
  C   C17       1.0  0.06761  0.01493  0.96733  1.0000
  C   C18       1.0  0.10051  0.02975  0.93457  1.0000
  H   H1        1.0  0.14164  0.07052  0.84446  1.0000
  O   O1        1.0  0.19922  0.10091  0.77728  1.0000
  O   O2        1.0  0.26174  0.07274  0.83954  1.0000
  H   H2        1.0  0.25681  0.01863  0.95914  1.0000
  H   H3        1.0  0.14164  0.92968  0.15574  1.0000
  O   O3        1.0  0.19922  0.89929  0.22291  1.0000
  O   O4        1.0  0.26174  0.92746  0.16066  1.0000
  H   H4        1.0  0.25681  0.98157  0.04106  1.0000
  H   H5        1.0  0.10051  0.94821  0.11478  1.0000
  O   O5        1.0  0.03800  0.97193  0.06236  1.0000
  O   O6        1.0  0.03799  0.02827  0.93784  1.0000
  H   H6        1.0  0.10051  0.05199  0.88542  1.0000
  Fe  Fe1       1.0  0.25000  0.88689  0.25000  1.0000
  C   C19       1.0  0.30078  0.98528  0.46724  1.0000
  C   C20       1.0  0.33368  0.97045  0.43447  1.0000
  C   C21       1.0  0.36658  0.98528  0.46724  1.0000
  C   C22       1.0  0.36658  0.01492  0.53276  1.0000
  C   C23       1.0  0.33368  0.02975  0.56553  1.0000
  C   C24       1.0  0.30078  0.01492  0.53277  1.0000
  C   C25       1.0  0.39949  0.02975  0.56553  1.0000
  C   C26       1.0  0.43239  0.01492  0.53277  1.0000
  C   C27       1.0  0.43239  0.98528  0.46724  1.0000
  C   C28       1.0  0.39949  0.97045  0.43447  1.0000
  C   C29       1.0  0.26787  0.97045  0.43447  1.0000
  C   C30       1.0  0.26787  0.94080  0.36894  1.0000
  C   C31       1.0  0.30078  0.92598  0.33618  1.0000
  C   C32       1.0  0.33368  0.94080  0.36894  1.0000
  C   C33       1.0  0.26787  0.02975  0.56553  1.0000
  C   C34       1.0  0.26787  0.05940  0.63106  1.0000
  C   C35       1.0  0.30078  0.07422  0.66382  1.0000
  C   C36       1.0  0.33368  0.05940  0.63106  1.0000
  H   H7        1.0  0.39949  0.05199  0.61468  1.0000
  O   O7        1.0  0.46200  0.02827  0.56225  1.0000
  O   O8        1.0  0.46200  0.97193  0.43775  1.0000
  H   H8        1.0  0.39949  0.94821  0.38533  1.0000
  H   H9        1.0  0.24319  0.98157  0.45905  1.0000
  O   O9        1.0  0.23826  0.92746  0.33946  1.0000
  O   O10       1.0  0.30078  0.89929  0.27720  1.0000
  H   H10       1.0  0.35836  0.92968  0.34437  1.0000
  H   H11       1.0  0.24319  0.01863  0.54096  1.0000
  O   O11       1.0  0.23826  0.07274  0.66055  1.0000
  O   O12       1.0  0.30078  0.10091  0.72280  1.0000
  H   H12       1.0  0.35836  0.07052  0.65563  1.0000
  Fe  Fe2       1.0  0.25000  0.11312  0.75000  1.0000
  C   C37       1.0  0.83368  0.02975  0.93457  1.0000
  C   C38       1.0  0.80078  0.01493  0.96733  1.0000
  C   C39       1.0  0.80078  0.98527  0.03287  1.0000
  C   C40       1.0  0.83368  0.97045  0.06563  1.0000
  C   C41       1.0  0.86658  0.98527  0.03287  1.0000
  C   C42       1.0  0.86658  0.01493  0.96733  1.0000
  C   C43       1.0  0.83368  0.94080  0.13117  1.0000
  C   C44       1.0  0.80078  0.92597  0.16393  1.0000
  C   C45       1.0  0.76787  0.94080  0.13117  1.0000
  C   C46       1.0  0.76787  0.97045  0.06563  1.0000
  C   C47       1.0  0.83368  0.05940  0.86903  1.0000
  C   C48       1.0  0.80078  0.07423  0.83627  1.0000
  C   C49       1.0  0.76787  0.05940  0.86903  1.0000
  C   C50       1.0  0.76787  0.02975  0.93457  1.0000
  C   C51       1.0  0.89949  0.02975  0.93457  1.0000
  C   C52       1.0  0.93239  0.01493  0.96733  1.0000
  C   C53       1.0  0.93239  0.98527  0.03287  1.0000
  C   C54       1.0  0.89949  0.97045  0.06563  1.0000
  H   H13       1.0  0.85836  0.92968  0.15574  1.0000
  O   O13       1.0  0.80078  0.89929  0.22292  1.0000
  O   O14       1.0  0.73826  0.92746  0.16066  1.0000
  H   H14       1.0  0.74319  0.98157  0.04106  1.0000
  H   H15       1.0  0.85836  0.07052  0.84446  1.0000
  O   O15       1.0  0.80078  0.10091  0.77729  1.0000
  O   O16       1.0  0.73826  0.07274  0.83954  1.0000
  H   H16       1.0  0.74319  0.01863  0.95914  1.0000
  H   H17       1.0  0.89949  0.05199  0.88542  1.0000
  O   O17       1.0  0.96200  0.02827  0.93784  1.0000
  O   O18       1.0  0.96201  0.97193  0.06236  1.0000
  H   H18       1.0  0.89949  0.94821  0.11478  1.0000
  Fe  Fe3       1.0  0.75000  0.11312  0.75000  1.0000
  C   C55       1.0  0.66632  0.97045  0.43447  1.0000
  C   C56       1.0  0.69922  0.98528  0.46724  1.0000
  C   C57       1.0  0.69922  0.01492  0.53276  1.0000
  C   C58       1.0  0.66632  0.02975  0.56553  1.0000
  C   C59       1.0  0.63342  0.01492  0.53276  1.0000
  C   C60       1.0  0.63342  0.98528  0.46724  1.0000
  C   C61       1.0  0.66632  0.05940  0.63106  1.0000
  C   C62       1.0  0.69922  0.07422  0.66382  1.0000
  C   C63       1.0  0.73213  0.05940  0.63106  1.0000
  C   C64       1.0  0.73213  0.02975  0.56553  1.0000
  C   C65       1.0  0.66632  0.94080  0.36894  1.0000
  C   C66       1.0  0.69922  0.92598  0.33618  1.0000
  C   C67       1.0  0.73213  0.94080  0.36894  1.0000
  C   C68       1.0  0.73213  0.97045  0.43447  1.0000
  C   C69       1.0  0.60051  0.97045  0.43447  1.0000
  C   C70       1.0  0.56761  0.98528  0.46724  1.0000
  C   C71       1.0  0.56761  0.01492  0.53276  1.0000
  C   C72       1.0  0.60051  0.02975  0.56553  1.0000
  H   H19       1.0  0.64164  0.07052  0.65563  1.0000
  O   O19       1.0  0.69922  0.10091  0.72280  1.0000
  O   O20       1.0  0.76174  0.07274  0.66055  1.0000
  H   H20       1.0  0.75681  0.01863  0.54096  1.0000
  H   H21       1.0  0.64164  0.92968  0.34437  1.0000
  O   O21       1.0  0.69922  0.89929  0.27720  1.0000
  O   O22       1.0  0.76174  0.92746  0.33946  1.0000
  H   H22       1.0  0.75681  0.98157  0.45905  1.0000
  H   H23       1.0  0.60051  0.94821  0.38533  1.0000
  O   O23       1.0  0.53800  0.97193  0.43775  1.0000
  O   O24       1.0  0.53800  0.02827  0.56225  1.0000
  H   H24       1.0  0.60051  0.05199  0.61467  1.0000
  Fe  Fe4       1.0  0.75000  0.88689  0.25001  1.0000
  C   C73       1.0  0.66632  0.47035  0.56554  1.0000
  C   C74       1.0  0.69922  0.48518  0.53277  1.0000
  C   C75       1.0  0.69922  0.51483  0.46724  1.0000
  C   C76       1.0  0.66632  0.52965  0.43447  1.0000
  C   C77       1.0  0.63342  0.51483  0.46724  1.0000
  C   C78       1.0  0.63342  0.48518  0.53277  1.0000
  C   C79       1.0  0.66632  0.55930  0.36893  1.0000
  C   C80       1.0  0.69922  0.57413  0.33616  1.0000
  C   C81       1.0  0.73213  0.55930  0.36893  1.0000
  C   C82       1.0  0.73213  0.52965  0.43447  1.0000
  C   C83       1.0  0.66632  0.44070  0.63107  1.0000
  C   C84       1.0  0.69922  0.42588  0.66384  1.0000
  C   C85       1.0  0.73213  0.44070  0.63107  1.0000
  C   C86       1.0  0.73213  0.47035  0.56554  1.0000
  C   C87       1.0  0.60051  0.47035  0.56554  1.0000
  C   C88       1.0  0.56761  0.48518  0.53277  1.0000
  C   C89       1.0  0.56761  0.51483  0.46724  1.0000
  C   C90       1.0  0.60051  0.52965  0.43447  1.0000
  H   H25       1.0  0.64164  0.57042  0.34436  1.0000
  O   O25       1.0  0.69922  0.60081  0.27718  1.0000
  O   O26       1.0  0.76174  0.57264  0.33944  1.0000
  H   H26       1.0  0.75681  0.51853  0.45904  1.0000
  H   H27       1.0  0.64164  0.42958  0.65565  1.0000
  O   O27       1.0  0.69922  0.39919  0.72282  1.0000
  O   O28       1.0  0.76174  0.42736  0.66056  1.0000
  H   H28       1.0  0.75681  0.48147  0.54096  1.0000
  H   H29       1.0  0.60051  0.44812  0.61469  1.0000
  O   O29       1.0  0.53799  0.47183  0.56226  1.0000
  O   O30       1.0  0.53799  0.52817  0.43774  1.0000
  H   H30       1.0  0.60051  0.55189  0.38532  1.0000
  Fe  Fe5       1.0  0.75000  0.38690  0.75000  1.0000
  C   C91       1.0  0.80078  0.48518  0.96733  1.0000
  C   C92       1.0  0.83368  0.47035  0.93457  1.0000
  C   C93       1.0  0.86658  0.48518  0.96733  1.0000
  C   C94       1.0  0.86658  0.51482  0.03287  1.0000
  C   C95       1.0  0.83368  0.52965  0.06563  1.0000
  C   C96       1.0  0.80078  0.51482  0.03287  1.0000
  C   C97       1.0  0.89949  0.52965  0.06563  1.0000
  C   C98       1.0  0.93239  0.51482  0.03287  1.0000
  C   C99       1.0  0.93239  0.48518  0.96733  1.0000
  C   C100      1.0  0.89949  0.47035  0.93457  1.0000
  C   C101      1.0  0.76787  0.47035  0.93457  1.0000
  C   C102      1.0  0.76787  0.44071  0.86904  1.0000
  C   C103      1.0  0.80078  0.42588  0.83627  1.0000
  C   C104      1.0  0.83368  0.44071  0.86904  1.0000
  C   C105      1.0  0.76787  0.52965  0.06563  1.0000
  C   C106      1.0  0.76787  0.55929  0.13116  1.0000
  C   C107      1.0  0.80078  0.57412  0.16393  1.0000
  C   C108      1.0  0.83368  0.55929  0.13116  1.0000
  H   H31       1.0  0.89949  0.55188  0.11478  1.0000
  O   O31       1.0  0.96201  0.52817  0.06235  1.0000
  O   O32       1.0  0.96201  0.47184  0.93785  1.0000
  H   H32       1.0  0.89949  0.44812  0.88542  1.0000
  H   H33       1.0  0.74319  0.48147  0.95914  1.0000
  O   O33       1.0  0.73826  0.42736  0.83955  1.0000
  O   O34       1.0  0.80078  0.39920  0.77730  1.0000
  H   H34       1.0  0.85836  0.42959  0.84446  1.0000
  H   H35       1.0  0.74319  0.51853  0.04106  1.0000
  O   O35       1.0  0.73826  0.57264  0.16065  1.0000
  O   O36       1.0  0.80078  0.60080  0.22291  1.0000
  H   H36       1.0  0.85836  0.57041  0.15574  1.0000
  Fe  Fe6       1.0  0.75000  0.61311  0.25000  1.0000
  C   C109      1.0  0.33368  0.52965  0.43447  1.0000
  C   C110      1.0  0.30078  0.51483  0.46723  1.0000
  C   C111      1.0  0.30078  0.48518  0.53277  1.0000
  C   C112      1.0  0.33368  0.47035  0.56554  1.0000
  C   C113      1.0  0.36658  0.48518  0.53277  1.0000
  C   C114      1.0  0.36658  0.51483  0.46724  1.0000
  C   C115      1.0  0.33368  0.44070  0.63107  1.0000
  C   C116      1.0  0.30078  0.42588  0.66384  1.0000
  C   C117      1.0  0.26787  0.44070  0.63107  1.0000
  C   C118      1.0  0.26787  0.47035  0.56554  1.0000
  C   C119      1.0  0.33368  0.55930  0.36893  1.0000
  C   C120      1.0  0.30078  0.57412  0.33616  1.0000
  C   C121      1.0  0.26787  0.55930  0.36893  1.0000
  C   C122      1.0  0.26787  0.52965  0.43447  1.0000
  C   C123      1.0  0.39949  0.52965  0.43447  1.0000
  C   C124      1.0  0.43239  0.51483  0.46724  1.0000
  C   C125      1.0  0.43239  0.48518  0.53277  1.0000
  C   C126      1.0  0.39949  0.47035  0.56554  1.0000
  H   H37       1.0  0.35836  0.42958  0.65565  1.0000
  O   O37       1.0  0.30078  0.39919  0.72282  1.0000
  O   O38       1.0  0.23826  0.42736  0.66056  1.0000
  H   H38       1.0  0.24319  0.48147  0.54096  1.0000
  H   H39       1.0  0.35836  0.57042  0.34436  1.0000
  O   O39       1.0  0.30078  0.60081  0.27718  1.0000
  O   O40       1.0  0.23826  0.57264  0.33944  1.0000
  H   H40       1.0  0.24319  0.51853  0.45904  1.0000
  H   H41       1.0  0.39949  0.55189  0.38532  1.0000
  O   O41       1.0  0.46201  0.52817  0.43774  1.0000
  O   O42       1.0  0.46201  0.47183  0.56226  1.0000
  H   H42       1.0  0.39949  0.44811  0.61469  1.0000
  Fe  Fe7       1.0  0.25000  0.61311  0.25000  1.0000
  C   C127      1.0  0.16632  0.47035  0.93457  1.0000
  C   C128      1.0  0.19922  0.48518  0.96733  1.0000
  C   C129      1.0  0.19922  0.51482  0.03287  1.0000
  C   C130      1.0  0.16632  0.52965  0.06563  1.0000
  C   C131      1.0  0.13342  0.51482  0.03287  1.0000
  C   C132      1.0  0.13342  0.48518  0.96733  1.0000
  C   C133      1.0  0.16632  0.55930  0.13116  1.0000
  C   C134      1.0  0.19922  0.57412  0.16393  1.0000
  C   C135      1.0  0.23213  0.55930  0.13116  1.0000
  C   C136      1.0  0.23213  0.52965  0.06563  1.0000
  C   C137      1.0  0.16632  0.44071  0.86904  1.0000
  C   C138      1.0  0.19922  0.42588  0.83627  1.0000
  C   C139      1.0  0.23213  0.44071  0.86904  1.0000
  C   C140      1.0  0.23213  0.47035  0.93457  1.0000
  C   C141      1.0  0.10051  0.47035  0.93457  1.0000
  C   C142      1.0  0.06761  0.48518  0.96733  1.0000
  C   C143      1.0  0.06761  0.51482  0.03287  1.0000
  C   C144      1.0  0.10051  0.52965  0.06563  1.0000
  H   H43       1.0  0.14164  0.57041  0.15574  1.0000
  O   O43       1.0  0.19922  0.60080  0.22291  1.0000
  O   O44       1.0  0.26174  0.57264  0.16065  1.0000
  H   H44       1.0  0.25681  0.51853  0.04106  1.0000
  H   H45       1.0  0.14164  0.42959  0.84446  1.0000
  O   O45       1.0  0.19922  0.39920  0.77730  1.0000
  O   O46       1.0  0.26174  0.42737  0.83955  1.0000
  H   H46       1.0  0.25681  0.48147  0.95914  1.0000
  H   H47       1.0  0.10051  0.44812  0.88542  1.0000
  O   O47       1.0  0.03799  0.47184  0.93785  1.0000
  O   O48       1.0  0.03799  0.52817  0.06235  1.0000
  H   H48       1.0  0.10051  0.55188  0.11478  1.0000
  Fe  Fe8       1.0  0.25000  0.38690  0.75000  1.0000
  Cu  Cu1       1.0  0.00010  0.00010  0.00010  1.0000
  C   C145      1.0  0.23733  0.74999  0.32567  1.0000
  C   C146      1.0  0.24367  0.79447  0.28784  1.0000
  C   C147      1.0  0.25633  0.79447  0.21217  1.0000
  C   C148      1.0  0.26266  0.75000  0.17433  1.0000
  C   C149      1.0  0.25633  0.70553  0.21217  1.0000
  C   C150      1.0  0.24367  0.70552  0.28784  1.0000
  H   H49       1.0  0.22783  0.74999  0.38243  1.0000
  O   O49       1.0  0.23797  0.83449  0.32189  1.0000
  O   O50       1.0  0.26203  0.83450  0.17812  1.0000
  H   H50       1.0  0.27216  0.75000  0.11758  1.0000
  O   O51       1.0  0.26203  0.66550  0.17811  1.0000
  O   O52       1.0  0.23797  0.66549  0.32189  1.0000
  Cu  Cu2       1.0  0.50000  0.00010  0.50000  1.0000
  C   C151      1.0  0.26266  0.25000  0.82567  1.0000
  C   C152      1.0  0.25633  0.20553  0.78783  1.0000
  C   C153      1.0  0.24367  0.20554  0.71216  1.0000
  C   C154      1.0  0.23733  0.25001  0.67433  1.0000
  C   C155      1.0  0.24367  0.29448  0.71216  1.0000
  C   C156      1.0  0.25633  0.29448  0.78784  1.0000
  H   H51       1.0  0.27216  0.25000  0.88242  1.0000
  O   O53       1.0  0.26203  0.16550  0.82188  1.0000
  O   O54       1.0  0.23797  0.16551  0.67811  1.0000
  H   H52       1.0  0.22783  0.25001  0.61757  1.0000
  O   O55       1.0  0.23797  0.33451  0.67811  1.0000
  O   O56       1.0  0.26203  0.33450  0.82189  1.0000
  C   C157      1.0  0.76267  0.25001  0.67433  1.0000
  C   C158      1.0  0.75633  0.20554  0.71216  1.0000
  C   C159      1.0  0.74367  0.20553  0.78783  1.0000
  C   C160      1.0  0.73734  0.25000  0.82567  1.0000
  C   C161      1.0  0.74367  0.29448  0.78784  1.0000
  C   C162      1.0  0.75633  0.29448  0.71217  1.0000
  H   H53       1.0  0.77217  0.25001  0.61757  1.0000
  O   O57       1.0  0.76203  0.16551  0.67811  1.0000
  O   O58       1.0  0.73797  0.16550  0.82188  1.0000
  H   H54       1.0  0.72784  0.25000  0.88242  1.0000
  O   O59       1.0  0.73797  0.33450  0.82189  1.0000
  O   O60       1.0  0.76203  0.33451  0.67812  1.0000
  C   C163      1.0  0.76267  0.74999  0.32568  1.0000
  C   C164      1.0  0.75633  0.70552  0.28784  1.0000
  C   C165      1.0  0.74367  0.70553  0.21217  1.0000
  C   C166      1.0  0.73734  0.75000  0.17433  1.0000
  C   C167      1.0  0.74367  0.79447  0.21217  1.0000
  C   C168      1.0  0.75633  0.79447  0.28784  1.0000
  H   H55       1.0  0.77217  0.74999  0.38243  1.0000
  O   O61       1.0  0.76203  0.66549  0.32189  1.0000
  O   O62       1.0  0.73797  0.66550  0.17811  1.0000
  H   H56       1.0  0.72784  0.75000  0.11758  1.0000
  O   O63       1.0  0.73797  0.83450  0.17812  1.0000
  O   O64       1.0  0.76203  0.83449  0.32190  1.0000
  Cu  Cu3       1.0  0.50000  0.50000  0.50000  1.0000
  Cu  Cu4       1.0  0.99990  0.50000  0.00010  1.0000
