data_image0
_chemical_formula_structural       C26H7O2H2O2HC4HO2HC26H7O2H2O2HC4HO2HC26H7O2H2O2HC4HO2HC26H7O2H2O2HC4HO2HC26H7O2H2O2HC4HO2HC26H7O2H2O2HC4HO2HC26H7O2H2O2HC4HO2HC26H7O2H2O2HC4HO2HFe8C6HO2HO2C6HO2HO2C6HO2HO2C6HO2HO2Cu4
_chemical_formula_sum              "C264 H104 O64 Fe8 Cu4"
_cell_length_a       33.7388
_cell_length_b       26.603
_cell_length_c       56.2839
_cell_angle_alpha    90
_cell_angle_beta     90
_cell_angle_gamma    89.9931

_space_group_name_H-M_alt    "P 1"
_space_group_IT_number       1

loop_
  _space_group_symop_operation_xyz
  'x, y, z'

loop_
  _atom_site_type_symbol
  _atom_site_label
  _atom_site_symmetry_multiplicity
  _atom_site_fract_x
  _atom_site_fract_y
  _atom_site_fract_z
  _atom_site_occupancy
  C   C1        1.0  0.22403  0.30219  0.16644  1.0000
  C   C2        1.0  0.23718  0.27853  0.19012  1.0000
  C   C3        1.0  0.26354  0.23127  0.19012  1.0000
  C   C4        1.0  0.27674  0.20765  0.16644  1.0000
  C   C5        1.0  0.26358  0.23130  0.14274  1.0000
  C   C6        1.0  0.23723  0.27857  0.14274  1.0000
  C   C7        1.0  0.30309  0.16038  0.16644  1.0000
  C   C8        1.0  0.31624  0.13673  0.19013  1.0000
  C   C9        1.0  0.30305  0.16035  0.21383  1.0000
  C   C10       1.0  0.27669  0.20761  0.21383  1.0000
  C   C11       1.0  0.19767  0.34946  0.16644  1.0000
  C   C12       1.0  0.18447  0.37307  0.19012  1.0000
  C   C13       1.0  0.19763  0.34942  0.21382  1.0000
  C   C14       1.0  0.22398  0.30215  0.21382  1.0000
  C   C15       1.0  0.22407  0.30222  0.11904  1.0000
  C   C16       1.0  0.23727  0.27861  0.09535  1.0000
  C   C17       1.0  0.26363  0.23134  0.09536  1.0000
  C   C18       1.0  0.27678  0.20769  0.11904  1.0000
  C   C19       1.0  0.27682  0.20773  0.07165  1.0000
  C   C20       1.0  0.26367  0.23138  0.04795  1.0000
  C   C21       1.0  0.23732  0.27865  0.04795  1.0000
  C   C22       1.0  0.22412  0.30226  0.07165  1.0000
  C   C23       1.0  0.31620  0.13669  0.23753  1.0000
  C   C24       1.0  0.34255  0.08942  0.23753  1.0000
  C   C25       1.0  0.35575  0.06581  0.21383  1.0000
  C   C26       1.0  0.34260  0.08946  0.19013  1.0000
  H   H1        1.0  0.31286  0.14290  0.14889  1.0000
  H   H2        1.0  0.26692  0.22510  0.23136  1.0000
  H   H3        1.0  0.18793  0.36697  0.14889  1.0000
  H   H4        1.0  0.23372  0.28464  0.23136  1.0000
  H   H5        1.0  0.20456  0.33722  0.11904  1.0000
  H   H6        1.0  0.29629  0.17270  0.11904  1.0000
  H   H7        1.0  0.29633  0.17273  0.07165  1.0000
  O   O1        1.0  0.27653  0.20838  0.02487  1.0000
  O   O2        1.0  0.22450  0.30168  0.02487  1.0000
  H   H8        1.0  0.20461  0.33725  0.07165  1.0000
  H   H9        1.0  0.30643  0.15417  0.25506  1.0000
  O   O3        1.0  0.35537  0.06639  0.26061  1.0000
  O   O4        1.0  0.38142  0.01977  0.21383  1.0000
  H   H10       1.0  0.35237  0.07198  0.17259  1.0000
  C   C27       1.0  0.18443  0.37303  0.23753  1.0000
  C   C28       1.0  0.15807  0.42030  0.23752  1.0000
  C   C29       1.0  0.14492  0.44396  0.21382  1.0000
  C   C30       1.0  0.15812  0.42034  0.19012  1.0000
  H   H11       1.0  0.19417  0.35553  0.25506  1.0000
  O   O5        1.0  0.14522  0.44331  0.26060  1.0000
  O   O6        1.0  0.11925  0.49000  0.21382  1.0000
  H   H12       1.0  0.14838  0.43785  0.17259  1.0000
  C   C31       1.0  0.72322  0.80089  0.16644  1.0000
  C   C32       1.0  0.73642  0.77728  0.19012  1.0000
  C   C33       1.0  0.76277  0.73001  0.19012  1.0000
  C   C34       1.0  0.77592  0.70636  0.16644  1.0000
  C   C35       1.0  0.76272  0.72997  0.14274  1.0000
  C   C36       1.0  0.73637  0.77724  0.14274  1.0000
  C   C37       1.0  0.80228  0.65909  0.16644  1.0000
  C   C38       1.0  0.81548  0.63547  0.19012  1.0000
  C   C39       1.0  0.80233  0.65913  0.21383  1.0000
  C   C40       1.0  0.77597  0.70640  0.21383  1.0000
  C   C41       1.0  0.69686  0.84816  0.16644  1.0000
  C   C42       1.0  0.68371  0.87182  0.19012  1.0000
  C   C43       1.0  0.69691  0.84821  0.21383  1.0000
  C   C44       1.0  0.72326  0.80094  0.21383  1.0000
  C   C45       1.0  0.72317  0.80085  0.11904  1.0000
  C   C46       1.0  0.73632  0.77719  0.09535  1.0000
  C   C47       1.0  0.76267  0.72992  0.09535  1.0000
  C   C48       1.0  0.77588  0.70631  0.11904  1.0000
  C   C49       1.0  0.77583  0.70627  0.07165  1.0000
  C   C50       1.0  0.76263  0.72988  0.04795  1.0000
  C   C51       1.0  0.73627  0.77715  0.04795  1.0000
  C   C52       1.0  0.72312  0.80080  0.07165  1.0000
  C   C53       1.0  0.81553  0.63552  0.23753  1.0000
  C   C54       1.0  0.84188  0.58825  0.23753  1.0000
  C   C55       1.0  0.85503  0.56459  0.21383  1.0000
  C   C56       1.0  0.84183  0.58821  0.19012  1.0000
  H   H13       1.0  0.81201  0.64157  0.14889  1.0000
  H   H14       1.0  0.76624  0.72391  0.23136  1.0000
  H   H15       1.0  0.68709  0.86564  0.14889  1.0000
  H   H16       1.0  0.73304  0.78346  0.23136  1.0000
  H   H17       1.0  0.70366  0.83584  0.11904  1.0000
  H   H18       1.0  0.79538  0.67132  0.11904  1.0000
  H   H19       1.0  0.79534  0.67128  0.07165  1.0000
  O   O7        1.0  0.77544  0.70684  0.02487  1.0000
  O   O8        1.0  0.72341  0.80015  0.02487  1.0000
  H   H20       1.0  0.70361  0.83580  0.07165  1.0000
  H   H21       1.0  0.80579  0.65303  0.25506  1.0000
  O   O9        1.0  0.85474  0.56525  0.26061  1.0000
  O   O10       1.0  0.88070  0.51855  0.21383  1.0000
  H   H22       1.0  0.85157  0.57069  0.17259  1.0000
  C   C57       1.0  0.68376  0.87186  0.23753  1.0000
  C   C58       1.0  0.65740  0.91913  0.23753  1.0000
  C   C59       1.0  0.64420  0.94274  0.21382  1.0000
  C   C60       1.0  0.65736  0.91909  0.19012  1.0000
  H   H23       1.0  0.69353  0.85438  0.25506  1.0000
  O   O11       1.0  0.64459  0.94217  0.26061  1.0000
  O   O12       1.0  0.61853  0.98879  0.21382  1.0000
  H   H24       1.0  0.64758  0.93657  0.17259  1.0000
  C   C61       1.0  0.22325  0.70765  0.33356  1.0000
  C   C62       1.0  0.23645  0.73126  0.30987  1.0000
  C   C63       1.0  0.26280  0.77852  0.30988  1.0000
  C   C64       1.0  0.27595  0.80217  0.33356  1.0000
  C   C65       1.0  0.26276  0.77856  0.35726  1.0000
  C   C66       1.0  0.23640  0.73130  0.35726  1.0000
  C   C67       1.0  0.30231  0.84944  0.33356  1.0000
  C   C68       1.0  0.31550  0.87305  0.30988  1.0000
  C   C69       1.0  0.30235  0.84940  0.28618  1.0000
  C   C70       1.0  0.27600  0.80214  0.28617  1.0000
  C   C71       1.0  0.19690  0.66039  0.33356  1.0000
  C   C72       1.0  0.18375  0.63674  0.30987  1.0000
  C   C73       1.0  0.19694  0.66035  0.28617  1.0000
  C   C74       1.0  0.22330  0.70761  0.28617  1.0000
  C   C75       1.0  0.22321  0.70769  0.38096  1.0000
  C   C76       1.0  0.23636  0.73134  0.40464  1.0000
  C   C77       1.0  0.26271  0.77860  0.40464  1.0000
  C   C78       1.0  0.27591  0.80221  0.38096  1.0000
  C   C79       1.0  0.27586  0.80225  0.42835  1.0000
  C   C80       1.0  0.26267  0.77864  0.45205  1.0000
  C   C81       1.0  0.23631  0.73137  0.45205  1.0000
  C   C82       1.0  0.22316  0.70772  0.42835  1.0000
  C   C83       1.0  0.31555  0.87301  0.26247  1.0000
  C   C84       1.0  0.34190  0.92028  0.26247  1.0000
  C   C85       1.0  0.35505  0.94393  0.28618  1.0000
  C   C86       1.0  0.34185  0.92031  0.30988  1.0000
  H   H25       1.0  0.31204  0.86694  0.35111  1.0000
  H   H26       1.0  0.26626  0.78463  0.26864  1.0000
  H   H27       1.0  0.18713  0.64291  0.35111  1.0000
  H   H28       1.0  0.23307  0.72509  0.26864  1.0000
  H   H29       1.0  0.20370  0.67270  0.38096  1.0000
  H   H30       1.0  0.29542  0.83720  0.38096  1.0000
  H   H31       1.0  0.29537  0.83724  0.42835  1.0000
  O   O13       1.0  0.27548  0.80167  0.47513  1.0000
  O   O14       1.0  0.22346  0.70838  0.47513  1.0000
  H   H32       1.0  0.20365  0.67274  0.42834  1.0000
  H   H33       1.0  0.30581  0.85551  0.24494  1.0000
  O   O15       1.0  0.35476  0.94327  0.23940  1.0000
  O   O16       1.0  0.38072  0.98996  0.28618  1.0000
  H   H34       1.0  0.35159  0.93782  0.32741  1.0000
  C   C87       1.0  0.18379  0.63670  0.26247  1.0000
  C   C88       1.0  0.15744  0.58943  0.26247  1.0000
  C   C89       1.0  0.14424  0.56582  0.28617  1.0000
  C   C90       1.0  0.15739  0.58947  0.30987  1.0000
  H   H35       1.0  0.19356  0.65418  0.24494  1.0000
  O   O17       1.0  0.14463  0.56640  0.23939  1.0000
  O   O18       1.0  0.11857  0.51979  0.28617  1.0000
  H   H36       1.0  0.14762  0.57199  0.32741  1.0000
  C   C91       1.0  0.72408  0.20634  0.33356  1.0000
  C   C92       1.0  0.73723  0.23000  0.30987  1.0000
  C   C93       1.0  0.76359  0.27726  0.30987  1.0000
  C   C94       1.0  0.77679  0.30087  0.33356  1.0000
  C   C95       1.0  0.76364  0.27722  0.35726  1.0000
  C   C96       1.0  0.73728  0.22995  0.35726  1.0000
  C   C97       1.0  0.80314  0.34813  0.33356  1.0000
  C   C98       1.0  0.81629  0.37178  0.30987  1.0000
  C   C99       1.0  0.80309  0.34818  0.28617  1.0000
  C   C100      1.0  0.77674  0.30091  0.28617  1.0000
  C   C101      1.0  0.69773  0.15908  0.33356  1.0000
  C   C102      1.0  0.68453  0.13547  0.30987  1.0000
  C   C103      1.0  0.69768  0.15913  0.28617  1.0000
  C   C104      1.0  0.72403  0.20639  0.28617  1.0000
  C   C105      1.0  0.72413  0.20630  0.38096  1.0000
  C   C106      1.0  0.73733  0.22991  0.40464  1.0000
  C   C107      1.0  0.76368  0.27717  0.40464  1.0000
  C   C108      1.0  0.77684  0.30082  0.38096  1.0000
  C   C109      1.0  0.77689  0.30078  0.42835  1.0000
  C   C110      1.0  0.76373  0.27713  0.45205  1.0000
  C   C111      1.0  0.73738  0.22986  0.45205  1.0000
  C   C112      1.0  0.72418  0.20625  0.42834  1.0000
  C   C113      1.0  0.81624  0.37183  0.26247  1.0000
  C   C114      1.0  0.84259  0.41909  0.26247  1.0000
  C   C115      1.0  0.85579  0.44270  0.28617  1.0000
  C   C116      1.0  0.84264  0.41905  0.30987  1.0000
  H   H37       1.0  0.81291  0.36561  0.35111  1.0000
  H   H38       1.0  0.76696  0.28344  0.26864  1.0000
  H   H39       1.0  0.68799  0.14157  0.35111  1.0000
  H   H40       1.0  0.73377  0.22390  0.26864  1.0000
  H   H41       1.0  0.70462  0.17131  0.38096  1.0000
  H   H42       1.0  0.79634  0.33581  0.38096  1.0000
  H   H43       1.0  0.79639  0.33577  0.42835  1.0000
  O   O19       1.0  0.77659  0.30012  0.47513  1.0000
  O   O20       1.0  0.72457  0.20682  0.47513  1.0000
  H   H44       1.0  0.70467  0.17127  0.42834  1.0000
  H   H45       1.0  0.80647  0.35435  0.24494  1.0000
  O   O21       1.0  0.85540  0.44213  0.23939  1.0000
  O   O22       1.0  0.88146  0.48874  0.28617  1.0000
  H   H46       1.0  0.85241  0.43652  0.32741  1.0000
  C   C117      1.0  0.68448  0.13552  0.26247  1.0000
  C   C118      1.0  0.65813  0.08826  0.26247  1.0000
  C   C119      1.0  0.64498  0.06460  0.28617  1.0000
  C   C120      1.0  0.65818  0.08821  0.30987  1.0000
  H   H47       1.0  0.69421  0.15303  0.24494  1.0000
  O   O23       1.0  0.64527  0.06526  0.23939  1.0000
  O   O24       1.0  0.61931  0.01857  0.28617  1.0000
  H   H48       1.0  0.64844  0.07070  0.32741  1.0000
  C   C121      1.0  0.76278  0.72999  0.80987  1.0000
  C   C122      1.0  0.77593  0.70635  0.83356  1.0000
  C   C123      1.0  0.76272  0.72996  0.85726  1.0000
  C   C124      1.0  0.73638  0.77721  0.85726  1.0000
  C   C125      1.0  0.72322  0.80088  0.83356  1.0000
  C   C126      1.0  0.73643  0.77727  0.80987  1.0000
  C   C127      1.0  0.72318  0.80083  0.88096  1.0000
  C   C128      1.0  0.73632  0.77719  0.90465  1.0000
  C   C129      1.0  0.76268  0.72991  0.90465  1.0000
  C   C130      1.0  0.77588  0.70630  0.88096  1.0000
  C   C131      1.0  0.77598  0.70638  0.78618  1.0000
  C   C132      1.0  0.80233  0.65913  0.78617  1.0000
  C   C133      1.0  0.81549  0.63546  0.80987  1.0000
  C   C134      1.0  0.80228  0.65907  0.83356  1.0000
  C   C135      1.0  0.72327  0.80093  0.78617  1.0000
  C   C136      1.0  0.69692  0.84818  0.78618  1.0000
  C   C137      1.0  0.68372  0.87180  0.80987  1.0000
  C   C138      1.0  0.69687  0.84816  0.83356  1.0000
  C   C139      1.0  0.65736  0.91907  0.80987  1.0000
  C   C140      1.0  0.64421  0.94274  0.78617  1.0000
  C   C141      1.0  0.65741  0.91913  0.76248  1.0000
  C   C142      1.0  0.68377  0.87185  0.76248  1.0000
  C   C143      1.0  0.77584  0.70625  0.92835  1.0000
  C   C144      1.0  0.76264  0.72986  0.95204  1.0000
  C   C145      1.0  0.73628  0.77714  0.95204  1.0000
  C   C146      1.0  0.72312  0.80080  0.92834  1.0000
  H   H49       1.0  0.70366  0.83584  0.88095  1.0000
  H   H50       1.0  0.79539  0.67131  0.88095  1.0000
  H   H51       1.0  0.76624  0.72391  0.76863  1.0000
  H   H52       1.0  0.81202  0.64157  0.85110  1.0000
  H   H53       1.0  0.73304  0.78345  0.76863  1.0000
  H   H54       1.0  0.68709  0.86564  0.85110  1.0000
  H   H55       1.0  0.64759  0.93655  0.82741  1.0000
  O   O25       1.0  0.61854  0.98878  0.78617  1.0000
  O   O26       1.0  0.64460  0.94217  0.73940  1.0000
  H   H56       1.0  0.69354  0.85437  0.74494  1.0000
  H   H57       1.0  0.79534  0.67126  0.92835  1.0000
  O   O27       1.0  0.77545  0.70682  0.97512  1.0000
  O   O28       1.0  0.72342  0.80013  0.97512  1.0000
  H   H58       1.0  0.70362  0.83578  0.92835  1.0000
  C   C147      1.0  0.84184  0.58818  0.80987  1.0000
  C   C148      1.0  0.85505  0.56457  0.78618  1.0000
  C   C149      1.0  0.84189  0.58824  0.76248  1.0000
  C   C150      1.0  0.81553  0.63551  0.76247  1.0000
  H   H59       1.0  0.85158  0.57068  0.82741  1.0000
  O   O29       1.0  0.88071  0.51853  0.78617  1.0000
  O   O30       1.0  0.85475  0.56524  0.73940  1.0000
  H   H60       1.0  0.80580  0.65302  0.74494  1.0000
  C   C151      1.0  0.26355  0.23124  0.80987  1.0000
  C   C152      1.0  0.27674  0.20765  0.83356  1.0000
  C   C153      1.0  0.26358  0.23130  0.85726  1.0000
  C   C154      1.0  0.23724  0.27855  0.85726  1.0000
  C   C155      1.0  0.22403  0.30217  0.83357  1.0000
  C   C156      1.0  0.23719  0.27852  0.80987  1.0000
  C   C157      1.0  0.22408  0.30220  0.88096  1.0000
  C   C158      1.0  0.23727  0.27860  0.90465  1.0000
  C   C159      1.0  0.26363  0.23133  0.90465  1.0000
  C   C160      1.0  0.27679  0.20768  0.88095  1.0000
  C   C161      1.0  0.27670  0.20759  0.78618  1.0000
  C   C162      1.0  0.30305  0.16034  0.78617  1.0000
  C   C163      1.0  0.31625  0.13672  0.80987  1.0000
  C   C164      1.0  0.30310  0.16037  0.83356  1.0000
  C   C165      1.0  0.22398  0.30215  0.78617  1.0000
  C   C166      1.0  0.19764  0.34940  0.78618  1.0000
  C   C167      1.0  0.18449  0.37305  0.80987  1.0000
  C   C168      1.0  0.19768  0.34945  0.83356  1.0000
  C   C169      1.0  0.15813  0.42033  0.80987  1.0000
  C   C170      1.0  0.14492  0.44395  0.78617  1.0000
  C   C171      1.0  0.15808  0.42030  0.76248  1.0000
  C   C172      1.0  0.18444  0.37302  0.76248  1.0000
  C   C173      1.0  0.27684  0.20770  0.92835  1.0000
  C   C174      1.0  0.26368  0.23136  0.95204  1.0000
  C   C175      1.0  0.23732  0.27863  0.95204  1.0000
  C   C176      1.0  0.22412  0.30226  0.92834  1.0000
  H   H61       1.0  0.20456  0.33721  0.88095  1.0000
  H   H62       1.0  0.29629  0.17269  0.88095  1.0000
  H   H63       1.0  0.26692  0.22509  0.76863  1.0000
  H   H64       1.0  0.31286  0.14290  0.85110  1.0000
  H   H65       1.0  0.23372  0.28464  0.76863  1.0000
  H   H66       1.0  0.18794  0.36696  0.85110  1.0000
  H   H67       1.0  0.14839  0.43783  0.82741  1.0000
  O   O31       1.0  0.11925  0.48999  0.78617  1.0000
  O   O32       1.0  0.14522  0.44330  0.73940  1.0000
  H   H68       1.0  0.19417  0.35551  0.74494  1.0000
  H   H69       1.0  0.29634  0.17272  0.92835  1.0000
  O   O33       1.0  0.27654  0.20836  0.97512  1.0000
  O   O34       1.0  0.22451  0.30167  0.97512  1.0000
  H   H70       1.0  0.20461  0.33724  0.92835  1.0000
  C   C177      1.0  0.34261  0.08944  0.80987  1.0000
  C   C178      1.0  0.35577  0.06579  0.78617  1.0000
  C   C179      1.0  0.34256  0.08941  0.76248  1.0000
  C   C180      1.0  0.31620  0.13669  0.76247  1.0000
  H   H71       1.0  0.35238  0.07197  0.82741  1.0000
  O   O35       1.0  0.38144  0.01975  0.78617  1.0000
  O   O36       1.0  0.35537  0.06637  0.73939  1.0000
  H   H72       1.0  0.30644  0.15416  0.74493  1.0000
  C   C181      1.0  0.76360  0.27728  0.69013  1.0000
  C   C182      1.0  0.77679  0.30087  0.66644  1.0000
  C   C183      1.0  0.76364  0.27722  0.64274  1.0000
  C   C184      1.0  0.73730  0.22998  0.64274  1.0000
  C   C185      1.0  0.72409  0.20636  0.66644  1.0000
  C   C186      1.0  0.73724  0.23001  0.69013  1.0000
  C   C187      1.0  0.72414  0.20632  0.61904  1.0000
  C   C188      1.0  0.73733  0.22991  0.59535  1.0000
  C   C189      1.0  0.76369  0.27718  0.59535  1.0000
  C   C190      1.0  0.77684  0.30084  0.61905  1.0000
  C   C191      1.0  0.77675  0.30094  0.71383  1.0000
  C   C192      1.0  0.80309  0.34818  0.71383  1.0000
  C   C193      1.0  0.81630  0.37180  0.69013  1.0000
  C   C194      1.0  0.80315  0.34814  0.66644  1.0000
  C   C195      1.0  0.72404  0.20639  0.71383  1.0000
  C   C196      1.0  0.69769  0.15915  0.71383  1.0000
  C   C197      1.0  0.68454  0.13550  0.69013  1.0000
  C   C198      1.0  0.69773  0.15909  0.66644  1.0000
  C   C199      1.0  0.65819  0.08823  0.69013  1.0000
  C   C200      1.0  0.64498  0.06461  0.71383  1.0000
  C   C201      1.0  0.65813  0.08826  0.73753  1.0000
  C   C202      1.0  0.68449  0.13553  0.73752  1.0000
  C   C203      1.0  0.77690  0.30080  0.57165  1.0000
  C   C204      1.0  0.76375  0.27715  0.54796  1.0000
  C   C205      1.0  0.73739  0.22988  0.54796  1.0000
  C   C206      1.0  0.72418  0.20626  0.57166  1.0000
  H   H73       1.0  0.70463  0.17132  0.61905  1.0000
  H   H74       1.0  0.79635  0.33582  0.61905  1.0000
  H   H75       1.0  0.76697  0.28344  0.73137  1.0000
  H   H76       1.0  0.81291  0.36561  0.64890  1.0000
  H   H77       1.0  0.73377  0.22390  0.73137  1.0000
  H   H78       1.0  0.68800  0.14158  0.64890  1.0000
  H   H79       1.0  0.64845  0.07072  0.67259  1.0000
  O   O37       1.0  0.61931  0.01858  0.71383  1.0000
  O   O38       1.0  0.64527  0.06527  0.76061  1.0000
  H   H80       1.0  0.69422  0.15304  0.75506  1.0000
  H   H81       1.0  0.79640  0.33578  0.57165  1.0000
  O   O39       1.0  0.77660  0.30014  0.52488  1.0000
  O   O40       1.0  0.72458  0.20684  0.52488  1.0000
  H   H82       1.0  0.70468  0.17128  0.57166  1.0000
  C   C207      1.0  0.84265  0.41907  0.69013  1.0000
  C   C208      1.0  0.85581  0.44272  0.71383  1.0000
  C   C209      1.0  0.84260  0.41910  0.73752  1.0000
  C   C210      1.0  0.81624  0.37183  0.73753  1.0000
  H   H83       1.0  0.85242  0.43654  0.67259  1.0000
  O   O41       1.0  0.88147  0.48876  0.71383  1.0000
  O   O42       1.0  0.85541  0.44214  0.76060  1.0000
  H   H84       1.0  0.80647  0.35436  0.75507  1.0000
  C   C211      1.0  0.26281  0.77855  0.69013  1.0000
  C   C212      1.0  0.27596  0.80218  0.66644  1.0000
  C   C213      1.0  0.26276  0.77857  0.64274  1.0000
  C   C214      1.0  0.23642  0.73132  0.64274  1.0000
  C   C215      1.0  0.22326  0.70766  0.66644  1.0000
  C   C216      1.0  0.23646  0.73128  0.69013  1.0000
  C   C217      1.0  0.22322  0.70771  0.61904  1.0000
  C   C218      1.0  0.23636  0.73134  0.59535  1.0000
  C   C219      1.0  0.26272  0.77861  0.59535  1.0000
  C   C220      1.0  0.27592  0.80222  0.61904  1.0000
  C   C221      1.0  0.27601  0.80216  0.71382  1.0000
  C   C222      1.0  0.30235  0.84940  0.71383  1.0000
  C   C223      1.0  0.31551  0.87306  0.69013  1.0000
  C   C224      1.0  0.30231  0.84945  0.66644  1.0000
  C   C225      1.0  0.22330  0.70762  0.71383  1.0000
  C   C226      1.0  0.19696  0.66037  0.71383  1.0000
  C   C227      1.0  0.18376  0.63676  0.69013  1.0000
  C   C228      1.0  0.19690  0.66039  0.66644  1.0000
  C   C229      1.0  0.15740  0.58949  0.69013  1.0000
  C   C230      1.0  0.14424  0.56583  0.71383  1.0000
  C   C231      1.0  0.15744  0.58944  0.73753  1.0000
  C   C232      1.0  0.18380  0.63671  0.73752  1.0000
  C   C233      1.0  0.27588  0.80227  0.57165  1.0000
  C   C234      1.0  0.26268  0.77866  0.54796  1.0000
  C   C235      1.0  0.23632  0.73139  0.54796  1.0000
  C   C236      1.0  0.22316  0.70773  0.57166  1.0000
  H   H85       1.0  0.20370  0.67270  0.61905  1.0000
  H   H86       1.0  0.29542  0.83720  0.61905  1.0000
  H   H87       1.0  0.26626  0.78463  0.73137  1.0000
  H   H88       1.0  0.31205  0.86695  0.64890  1.0000
  H   H89       1.0  0.23307  0.72510  0.73137  1.0000
  H   H90       1.0  0.18713  0.64291  0.64890  1.0000
  H   H91       1.0  0.14763  0.57201  0.67259  1.0000
  O   O43       1.0  0.11858  0.51979  0.71383  1.0000
  O   O44       1.0  0.14463  0.56641  0.76061  1.0000
  H   H92       1.0  0.19357  0.65419  0.75506  1.0000
  H   H93       1.0  0.29538  0.83725  0.57165  1.0000
  O   O45       1.0  0.27549  0.80169  0.52488  1.0000
  O   O46       1.0  0.22347  0.70839  0.52488  1.0000
  H   H94       1.0  0.20366  0.67275  0.57166  1.0000
  C   C237      1.0  0.34187  0.92033  0.69013  1.0000
  C   C238      1.0  0.35506  0.94395  0.71382  1.0000
  C   C239      1.0  0.34191  0.92029  0.73752  1.0000
  C   C240      1.0  0.31555  0.87302  0.73752  1.0000
  H   H95       1.0  0.35160  0.93783  0.67259  1.0000
  O   O47       1.0  0.38073  0.98998  0.71382  1.0000
  O   O48       1.0  0.35476  0.94329  0.76060  1.0000
  H   H96       1.0  0.30582  0.85552  0.75506  1.0000
  Fe  Fe1       1.0  0.38938  0.00458  0.25001  1.0000
  Fe  Fe2       1.0  0.61061  0.00402  0.25000  1.0000
  Fe  Fe3       1.0  0.61061  0.00402  0.75000  1.0000
  Fe  Fe4       1.0  0.38938  0.00458  0.74999  1.0000
  Fe  Fe5       1.0  0.88939  0.50400  0.25000  1.0000
  Fe  Fe6       1.0  0.11061  0.50458  0.25000  1.0000
  Fe  Fe7       1.0  0.11061  0.50458  0.75000  1.0000
  Fe  Fe8       1.0  0.88939  0.50400  0.75000  1.0000
  C   C241      1.0  0.50007  0.05693  0.25000  1.0000
  C   C242      1.0  0.46410  0.03071  0.25001  1.0000
  C   C243      1.0  0.46403  0.97808  0.25001  1.0000
  C   C244      1.0  0.49992  0.95168  0.25001  1.0000
  C   C245      1.0  0.53590  0.97790  0.25000  1.0000
  C   C246      1.0  0.53597  0.03053  0.25000  1.0000
  H   H97       1.0  0.50013  0.09640  0.25000  1.0000
  O   O49       1.0  0.43179  0.05447  0.25001  1.0000
  O   O50       1.0  0.43165  0.95448  0.25001  1.0000
  H   H98       1.0  0.49987  0.91221  0.25001  1.0000
  O   O51       1.0  0.56820  0.95414  0.25000  1.0000
  O   O52       1.0  0.56835  0.05413  0.25000  1.0000
  C   C247      1.0  0.50008  0.05693  0.75000  1.0000
  C   C248      1.0  0.46410  0.03071  0.74999  1.0000
  C   C249      1.0  0.46403  0.97808  0.74999  1.0000
  C   C250      1.0  0.49992  0.95168  0.74999  1.0000
  C   C251      1.0  0.53590  0.97790  0.75000  1.0000
  C   C252      1.0  0.53597  0.03053  0.75000  1.0000
  H   H99       1.0  0.50013  0.09640  0.75000  1.0000
  O   O53       1.0  0.43179  0.05447  0.74999  1.0000
  O   O54       1.0  0.43165  0.95448  0.74999  1.0000
  H   H100      1.0  0.49987  0.91221  0.74999  1.0000
  O   O55       1.0  0.56820  0.95414  0.75000  1.0000
  O   O56       1.0  0.56835  0.05413  0.75000  1.0000
  C   C253      1.0  0.99990  0.55692  0.25000  1.0000
  C   C254      1.0  0.03589  0.53070  0.25000  1.0000
  C   C255      1.0  0.03598  0.47808  0.25000  1.0000
  C   C256      1.0  0.00010  0.45167  0.25000  1.0000
  C   C257      1.0  0.96411  0.47788  0.25000  1.0000
  C   C258      1.0  0.96402  0.53051  0.25000  1.0000
  H   H101      1.0  0.99990  0.59639  0.25000  1.0000
  O   O57       1.0  0.06819  0.55447  0.25000  1.0000
  O   O58       1.0  0.06837  0.45448  0.25000  1.0000
  H   H102      1.0  0.00010  0.41220  0.25000  1.0000
  O   O59       1.0  0.93181  0.45412  0.25000  1.0000
  O   O60       1.0  0.93163  0.55410  0.25000  1.0000
  C   C259      1.0  0.99990  0.55692  0.75000  1.0000
  C   C260      1.0  0.96402  0.53051  0.75000  1.0000
  C   C261      1.0  0.96411  0.47788  0.75000  1.0000
  C   C262      1.0  0.00010  0.45167  0.75000  1.0000
  C   C263      1.0  0.03598  0.47808  0.75000  1.0000
  C   C264      1.0  0.03589  0.53070  0.75000  1.0000
  H   H103      1.0  0.99990  0.59639  0.75000  1.0000
  O   O61       1.0  0.93163  0.55410  0.75000  1.0000
  O   O62       1.0  0.93181  0.45412  0.75000  1.0000
  H   H104      1.0  0.00010  0.41220  0.75000  1.0000
  O   O63       1.0  0.06837  0.45448  0.75000  1.0000
  O   O64       1.0  0.06819  0.55447  0.75000  1.0000
  Cu  Cu1       1.0  0.25052  0.25502  0.00010  1.0000
  Cu  Cu2       1.0  0.74943  0.75348  0.00010  1.0000
  Cu  Cu3       1.0  0.24947  0.75503  0.50000  1.0000
  Cu  Cu4       1.0  0.75059  0.25348  0.50000  1.0000
