data_image0
_chemical_formula_structural       C18HO2H2O2H2O2HC18HO2H2O2H2O2HC18HO2H2O2H2O2HC18HO2H2O2H2O2HC18HO2H2O2H2O2HC18HO2H2O2H2O2HC18HO2H2O2H2O2HC18HO2H2O2H2O2HFe8C6HO2HO2C6HO2HO2C6HO2HO2C6HO2HO2Cu4
_chemical_formula_sum              "C168 H56 O64 Fe8 Cu4"
_cell_length_a       27.246
_cell_length_b       17.4453
_cell_length_c       36.842
_cell_angle_alpha    89.9999
_cell_angle_beta     90
_cell_angle_gamma    89.9999

_space_group_name_H-M_alt    "P 1"
_space_group_IT_number       1

loop_
  _space_group_symop_operation_xyz
  'x, y, z'

loop_
  _atom_site_type_symbol
  _atom_site_label
  _atom_site_symmetry_multiplicity
  _atom_site_fract_x
  _atom_site_fract_y
  _atom_site_fract_z
  _atom_site_occupancy
  C   C1        1.0  0.21603  0.32032  0.16635  1.0000
  C   C2        1.0  0.23120  0.28792  0.19925  1.0000
  C   C3        1.0  0.26085  0.22238  0.19925  1.0000
  C   C4        1.0  0.27533  0.18923  0.16635  1.0000
  C   C5        1.0  0.26017  0.22163  0.13344  1.0000
  C   C6        1.0  0.23052  0.28717  0.13344  1.0000
  C   C7        1.0  0.30498  0.12369  0.16635  1.0000
  C   C8        1.0  0.32015  0.09129  0.19925  1.0000
  C   C9        1.0  0.30567  0.12444  0.23216  1.0000
  C   C10       1.0  0.27602  0.18999  0.23216  1.0000
  C   C11       1.0  0.18639  0.38586  0.16635  1.0000
  C   C12       1.0  0.17190  0.41901  0.19925  1.0000
  C   C13       1.0  0.18707  0.38662  0.23216  1.0000
  C   C14       1.0  0.21672  0.32107  0.23216  1.0000
  C   C15       1.0  0.21535  0.31957  0.10053  1.0000
  C   C16       1.0  0.22983  0.28642  0.06762  1.0000
  C   C17       1.0  0.25948  0.22087  0.06762  1.0000
  C   C18       1.0  0.27465  0.18848  0.10053  1.0000
  H   H1        1.0  0.31584  0.09883  0.14167  1.0000
  O   O1        1.0  0.34683  0.03231  0.19925  1.0000
  O   O2        1.0  0.31932  0.09529  0.26178  1.0000
  H   H2        1.0  0.26515  0.21485  0.25684  1.0000
  H   H3        1.0  0.17501  0.41016  0.14167  1.0000
  O   O3        1.0  0.14522  0.47800  0.19925  1.0000
  O   O4        1.0  0.17403  0.41645  0.26178  1.0000
  H   H4        1.0  0.22809  0.29678  0.25684  1.0000
  H   H5        1.0  0.19311  0.36872  0.10053  1.0000
  O   O5        1.0  0.21618  0.31557  0.03801  1.0000
  O   O6        1.0  0.27252  0.19104  0.03801  1.0000
  H   H6        1.0  0.29689  0.13932  0.10053  1.0000
  C   C19       1.0  0.72475  0.84158  0.16635  1.0000
  C   C20       1.0  0.73922  0.80842  0.19925  1.0000
  C   C21       1.0  0.76887  0.74288  0.19925  1.0000
  C   C22       1.0  0.78404  0.71049  0.16634  1.0000
  C   C23       1.0  0.76957  0.74365  0.13344  1.0000
  C   C24       1.0  0.73992  0.80919  0.13344  1.0000
  C   C25       1.0  0.81369  0.64494  0.16634  1.0000
  C   C26       1.0  0.82817  0.61179  0.19925  1.0000
  C   C27       1.0  0.81300  0.64417  0.23216  1.0000
  C   C28       1.0  0.78335  0.70972  0.23216  1.0000
  C   C29       1.0  0.69510  0.90713  0.16635  1.0000
  C   C30       1.0  0.67993  0.93951  0.19926  1.0000
  C   C31       1.0  0.69441  0.90635  0.23216  1.0000
  C   C32       1.0  0.72405  0.84081  0.23216  1.0000
  C   C33       1.0  0.72544  0.84235  0.10053  1.0000
  C   C34       1.0  0.74061  0.80997  0.06762  1.0000
  C   C35       1.0  0.77026  0.74442  0.06762  1.0000
  C   C36       1.0  0.78474  0.71126  0.10053  1.0000
  H   H7        1.0  0.82507  0.62066  0.14166  1.0000
  O   O7        1.0  0.85485  0.55280  0.19925  1.0000
  O   O8        1.0  0.82603  0.61433  0.26177  1.0000
  H   H8        1.0  0.77197  0.73401  0.25684  1.0000
  H   H9        1.0  0.68424  0.93199  0.14167  1.0000
  O   O9        1.0  0.65325  0.99850  0.19926  1.0000
  O   O10       1.0  0.68075  0.93550  0.26178  1.0000
  H   H10       1.0  0.73491  0.81594  0.25684  1.0000
  H   H11       1.0  0.70321  0.89151  0.10053  1.0000
  O   O11       1.0  0.72758  0.83981  0.03801  1.0000
  O   O12       1.0  0.78391  0.71527  0.03800  1.0000
  H   H12       1.0  0.80697  0.66210  0.10053  1.0000
  C   C37       1.0  0.22466  0.68927  0.33365  1.0000
  C   C38       1.0  0.23915  0.72242  0.30075  1.0000
  C   C39       1.0  0.26879  0.78796  0.30074  1.0000
  C   C40       1.0  0.28396  0.82036  0.33365  1.0000
  C   C41       1.0  0.26948  0.78721  0.36656  1.0000
  C   C42       1.0  0.23983  0.72167  0.36656  1.0000
  C   C43       1.0  0.31361  0.88591  0.33365  1.0000
  C   C44       1.0  0.32809  0.91905  0.30074  1.0000
  C   C45       1.0  0.31292  0.88666  0.26784  1.0000
  C   C46       1.0  0.28328  0.82111  0.26784  1.0000
  C   C47       1.0  0.19502  0.62372  0.33365  1.0000
  C   C48       1.0  0.17985  0.59132  0.30075  1.0000
  C   C49       1.0  0.19434  0.62447  0.26784  1.0000
  C   C50       1.0  0.22398  0.69002  0.26784  1.0000
  C   C51       1.0  0.22535  0.68852  0.39947  1.0000
  C   C52       1.0  0.24051  0.72092  0.43238  1.0000
  C   C53       1.0  0.27016  0.78647  0.43238  1.0000
  C   C54       1.0  0.28464  0.81961  0.39947  1.0000
  H   H13       1.0  0.32498  0.91021  0.35833  1.0000
  O   O13       1.0  0.35477  0.97805  0.30074  1.0000
  O   O14       1.0  0.32596  0.91649  0.23822  1.0000
  H   H14       1.0  0.27190  0.79681  0.24316  1.0000
  H   H15       1.0  0.18416  0.59886  0.35834  1.0000
  O   O15       1.0  0.15317  0.53233  0.30075  1.0000
  O   O16       1.0  0.18069  0.59531  0.23822  1.0000
  H   H16       1.0  0.23485  0.71488  0.24316  1.0000
  H   H17       1.0  0.20311  0.63936  0.39947  1.0000
  O   O17       1.0  0.22748  0.69109  0.46199  1.0000
  O   O18       1.0  0.28380  0.81562  0.46199  1.0000
  H   H18       1.0  0.30687  0.86877  0.39947  1.0000
  C   C55       1.0  0.71597  0.21049  0.33365  1.0000
  C   C56       1.0  0.73114  0.24288  0.30075  1.0000
  C   C57       1.0  0.76079  0.30842  0.30074  1.0000
  C   C58       1.0  0.77526  0.34158  0.33365  1.0000
  C   C59       1.0  0.76009  0.30919  0.36656  1.0000
  C   C60       1.0  0.73044  0.24365  0.36656  1.0000
  C   C61       1.0  0.80491  0.40712  0.33365  1.0000
  C   C62       1.0  0.82008  0.43951  0.30074  1.0000
  C   C63       1.0  0.80561  0.40635  0.26783  1.0000
  C   C64       1.0  0.77596  0.34081  0.26784  1.0000
  C   C65       1.0  0.68632  0.14495  0.33366  1.0000
  C   C66       1.0  0.67184  0.11179  0.30075  1.0000
  C   C67       1.0  0.68701  0.14418  0.26784  1.0000
  C   C68       1.0  0.71666  0.20972  0.26784  1.0000
  C   C69       1.0  0.71527  0.21126  0.39947  1.0000
  C   C70       1.0  0.72975  0.24442  0.43238  1.0000
  C   C71       1.0  0.75940  0.30996  0.43237  1.0000
  C   C72       1.0  0.77457  0.34235  0.39947  1.0000
  H   H19       1.0  0.81577  0.43199  0.35833  1.0000
  O   O19       1.0  0.84677  0.49850  0.30074  1.0000
  O   O20       1.0  0.81926  0.43550  0.23822  1.0000
  H   H20       1.0  0.76510  0.31594  0.24316  1.0000
  H   H21       1.0  0.67494  0.12066  0.35834  1.0000
  O   O21       1.0  0.64516  0.05280  0.30075  1.0000
  O   O22       1.0  0.67398  0.11433  0.23823  1.0000
  H   H22       1.0  0.72804  0.23401  0.24316  1.0000
  H   H23       1.0  0.69304  0.16210  0.39947  1.0000
  O   O23       1.0  0.71610  0.21527  0.46199  1.0000
  O   O24       1.0  0.77243  0.33981  0.46199  1.0000
  H   H24       1.0  0.79681  0.39151  0.39946  1.0000
  C   C73       1.0  0.76887  0.74288  0.80075  1.0000
  C   C74       1.0  0.78404  0.71049  0.83366  1.0000
  C   C75       1.0  0.76956  0.74365  0.86656  1.0000
  C   C76       1.0  0.73992  0.80919  0.86656  1.0000
  C   C77       1.0  0.72475  0.84158  0.83365  1.0000
  C   C78       1.0  0.73922  0.80842  0.80075  1.0000
  C   C79       1.0  0.72544  0.84235  0.89947  1.0000
  C   C80       1.0  0.74061  0.80997  0.93238  1.0000
  C   C81       1.0  0.77026  0.74442  0.93238  1.0000
  C   C82       1.0  0.78474  0.71126  0.89947  1.0000
  C   C83       1.0  0.78335  0.70972  0.76784  1.0000
  C   C84       1.0  0.81299  0.64417  0.76784  1.0000
  C   C85       1.0  0.82817  0.61179  0.80075  1.0000
  C   C86       1.0  0.81369  0.64494  0.83366  1.0000
  C   C87       1.0  0.72405  0.84081  0.76784  1.0000
  C   C88       1.0  0.69440  0.90635  0.76784  1.0000
  C   C89       1.0  0.67993  0.93951  0.80074  1.0000
  C   C90       1.0  0.69510  0.90712  0.83365  1.0000
  H   H25       1.0  0.70320  0.89151  0.89947  1.0000
  O   O25       1.0  0.72758  0.83981  0.96199  1.0000
  O   O26       1.0  0.78391  0.71527  0.96199  1.0000
  H   H26       1.0  0.80697  0.66210  0.89947  1.0000
  H   H27       1.0  0.77197  0.73401  0.74316  1.0000
  O   O27       1.0  0.82602  0.61433  0.73823  1.0000
  O   O28       1.0  0.85485  0.55279  0.80075  1.0000
  H   H28       1.0  0.82507  0.62065  0.85834  1.0000
  H   H29       1.0  0.73491  0.81594  0.74316  1.0000
  O   O29       1.0  0.68075  0.93550  0.73822  1.0000
  O   O30       1.0  0.65324  0.99850  0.80074  1.0000
  H   H30       1.0  0.68424  0.93199  0.85833  1.0000
  C   C91       1.0  0.26085  0.22238  0.80075  1.0000
  C   C92       1.0  0.27533  0.18923  0.83365  1.0000
  C   C93       1.0  0.26017  0.22163  0.86656  1.0000
  C   C94       1.0  0.23052  0.28717  0.86656  1.0000
  C   C95       1.0  0.21603  0.32032  0.83365  1.0000
  C   C96       1.0  0.23120  0.28792  0.80075  1.0000
  C   C97       1.0  0.21535  0.31957  0.89947  1.0000
  C   C98       1.0  0.22983  0.28642  0.93238  1.0000
  C   C99       1.0  0.25948  0.22087  0.93238  1.0000
  C   C100      1.0  0.27465  0.18848  0.89947  1.0000
  C   C101      1.0  0.27601  0.18999  0.76784  1.0000
  C   C102      1.0  0.30566  0.12444  0.76784  1.0000
  C   C103      1.0  0.32015  0.09129  0.80075  1.0000
  C   C104      1.0  0.30498  0.12369  0.83365  1.0000
  C   C105      1.0  0.21672  0.32107  0.76784  1.0000
  C   C106      1.0  0.18707  0.38662  0.76784  1.0000
  C   C107      1.0  0.17190  0.41901  0.80075  1.0000
  C   C108      1.0  0.18638  0.38586  0.83365  1.0000
  H   H31       1.0  0.19311  0.36872  0.89947  1.0000
  O   O31       1.0  0.21618  0.31557  0.96199  1.0000
  O   O32       1.0  0.27252  0.19104  0.96199  1.0000
  H   H32       1.0  0.29689  0.13932  0.89947  1.0000
  H   H33       1.0  0.26515  0.21485  0.74316  1.0000
  O   O33       1.0  0.31931  0.09529  0.73822  1.0000
  O   O34       1.0  0.34683  0.03230  0.80075  1.0000
  H   H34       1.0  0.31584  0.09883  0.85833  1.0000
  H   H35       1.0  0.22809  0.29678  0.74316  1.0000
  O   O35       1.0  0.17403  0.41645  0.73822  1.0000
  O   O36       1.0  0.14522  0.47800  0.80075  1.0000
  H   H36       1.0  0.17501  0.41016  0.85833  1.0000
  C   C109      1.0  0.76078  0.30842  0.69926  1.0000
  C   C110      1.0  0.77526  0.34158  0.66635  1.0000
  C   C111      1.0  0.76009  0.30919  0.63344  1.0000
  C   C112      1.0  0.73044  0.24365  0.63344  1.0000
  C   C113      1.0  0.71596  0.21049  0.66635  1.0000
  C   C114      1.0  0.73113  0.24288  0.69925  1.0000
  C   C115      1.0  0.71527  0.21126  0.60053  1.0000
  C   C116      1.0  0.72975  0.24442  0.56762  1.0000
  C   C117      1.0  0.75940  0.30996  0.56763  1.0000
  C   C118      1.0  0.77457  0.34235  0.60053  1.0000
  C   C119      1.0  0.77595  0.34081  0.73216  1.0000
  C   C120      1.0  0.80560  0.40635  0.73217  1.0000
  C   C121      1.0  0.82008  0.43951  0.69926  1.0000
  C   C122      1.0  0.80491  0.40712  0.66635  1.0000
  C   C123      1.0  0.71666  0.20972  0.73216  1.0000
  C   C124      1.0  0.68701  0.14418  0.73216  1.0000
  C   C125      1.0  0.67184  0.11179  0.69925  1.0000
  C   C126      1.0  0.68632  0.14495  0.66634  1.0000
  H   H37       1.0  0.69304  0.16211  0.60053  1.0000
  O   O37       1.0  0.71610  0.21527  0.53801  1.0000
  O   O38       1.0  0.77243  0.33981  0.53801  1.0000
  H   H38       1.0  0.79681  0.39151  0.60054  1.0000
  H   H39       1.0  0.76510  0.31594  0.75684  1.0000
  O   O39       1.0  0.81926  0.43550  0.76178  1.0000
  O   O40       1.0  0.84677  0.49850  0.69926  1.0000
  H   H40       1.0  0.81577  0.43199  0.64167  1.0000
  H   H41       1.0  0.72803  0.23401  0.75684  1.0000
  O   O41       1.0  0.67398  0.11433  0.76177  1.0000
  O   O42       1.0  0.64515  0.05280  0.69925  1.0000
  H   H42       1.0  0.67494  0.12066  0.64166  1.0000
  C   C127      1.0  0.26879  0.78796  0.69926  1.0000
  C   C128      1.0  0.28396  0.82036  0.66635  1.0000
  C   C129      1.0  0.26947  0.78721  0.63344  1.0000
  C   C130      1.0  0.23983  0.72167  0.63344  1.0000
  C   C131      1.0  0.22466  0.68927  0.66635  1.0000
  C   C132      1.0  0.23914  0.72242  0.69925  1.0000
  C   C133      1.0  0.22534  0.68852  0.60053  1.0000
  C   C134      1.0  0.24051  0.72092  0.56762  1.0000
  C   C135      1.0  0.27016  0.78647  0.56762  1.0000
  C   C136      1.0  0.28464  0.81961  0.60053  1.0000
  C   C137      1.0  0.28327  0.82111  0.73216  1.0000
  C   C138      1.0  0.31292  0.88666  0.73216  1.0000
  C   C139      1.0  0.32809  0.91905  0.69926  1.0000
  C   C140      1.0  0.31360  0.88591  0.66635  1.0000
  C   C141      1.0  0.22398  0.69002  0.73216  1.0000
  C   C142      1.0  0.19433  0.62447  0.73216  1.0000
  C   C143      1.0  0.17985  0.59132  0.69925  1.0000
  C   C144      1.0  0.19502  0.62372  0.66635  1.0000
  H   H43       1.0  0.20311  0.63936  0.60053  1.0000
  O   O43       1.0  0.22747  0.69109  0.53801  1.0000
  O   O44       1.0  0.28380  0.81562  0.53801  1.0000
  H   H44       1.0  0.30687  0.86877  0.60053  1.0000
  H   H45       1.0  0.27190  0.79681  0.75684  1.0000
  O   O45       1.0  0.32596  0.91649  0.76178  1.0000
  O   O46       1.0  0.35477  0.97805  0.69926  1.0000
  H   H46       1.0  0.32498  0.91021  0.64167  1.0000
  H   H47       1.0  0.23484  0.71488  0.75684  1.0000
  O   O47       1.0  0.18069  0.59531  0.76178  1.0000
  O   O48       1.0  0.15317  0.53233  0.69925  1.0000
  H   H48       1.0  0.18415  0.59886  0.64166  1.0000
  Fe  Fe1       1.0  0.36308  0.00957  0.25000  1.0000
  Fe  Fe2       1.0  0.63692  0.02117  0.25001  1.0000
  Fe  Fe3       1.0  0.63691  0.02117  0.74999  1.0000
  Fe  Fe4       1.0  0.36308  0.00956  0.75000  1.0000
  Fe  Fe5       1.0  0.86309  0.52116  0.24999  1.0000
  Fe  Fe6       1.0  0.13692  0.50953  0.25000  1.0000
  Fe  Fe7       1.0  0.13692  0.50953  0.75000  1.0000
  Fe  Fe8       1.0  0.86308  0.52116  0.75001  1.0000
  C   C145      1.0  0.49861  0.09558  0.25000  1.0000
  C   C146      1.0  0.45482  0.05359  0.25000  1.0000
  C   C147      1.0  0.45621  0.97336  0.25000  1.0000
  C   C148      1.0  0.50139  0.93514  0.25000  1.0000
  C   C149      1.0  0.54518  0.97713  0.25000  1.0000
  C   C150      1.0  0.54379  0.05735  0.25000  1.0000
  H   H49       1.0  0.49756  0.15575  0.25000  1.0000
  O   O49       1.0  0.41416  0.08799  0.25000  1.0000
  O   O50       1.0  0.41680  0.93557  0.25000  1.0000
  H   H50       1.0  0.50244  0.87497  0.25000  1.0000
  O   O51       1.0  0.58584  0.94273  0.25001  1.0000
  O   O52       1.0  0.58320  0.09515  0.25000  1.0000
  C   C151      1.0  0.49861  0.09558  0.75000  1.0000
  C   C152      1.0  0.45482  0.05358  0.75000  1.0000
  C   C153      1.0  0.45621  0.97336  0.75000  1.0000
  C   C154      1.0  0.50139  0.93514  0.75000  1.0000
  C   C155      1.0  0.54518  0.97713  0.75000  1.0000
  C   C156      1.0  0.54378  0.05735  0.75000  1.0000
  H   H51       1.0  0.49756  0.15574  0.75000  1.0000
  O   O53       1.0  0.41416  0.08799  0.75000  1.0000
  O   O54       1.0  0.41680  0.93557  0.75000  1.0000
  H   H52       1.0  0.50243  0.87497  0.75000  1.0000
  O   O55       1.0  0.58584  0.94273  0.74999  1.0000
  O   O56       1.0  0.58319  0.09515  0.74999  1.0000
  C   C157      1.0  0.00140  0.59556  0.24999  1.0000
  C   C158      1.0  0.04518  0.55356  0.25000  1.0000
  C   C159      1.0  0.04379  0.47334  0.25000  1.0000
  C   C160      1.0  0.99861  0.43511  0.24999  1.0000
  C   C161      1.0  0.95482  0.47711  0.24999  1.0000
  C   C162      1.0  0.95622  0.55733  0.24999  1.0000
  H   H53       1.0  0.00244  0.65572  0.24999  1.0000
  O   O57       1.0  0.08584  0.58796  0.25000  1.0000
  O   O58       1.0  0.08319  0.43554  0.25000  1.0000
  H   H54       1.0  0.99756  0.37495  0.24999  1.0000
  O   O59       1.0  0.91416  0.44271  0.24999  1.0000
  O   O60       1.0  0.91681  0.59513  0.24999  1.0000
  C   C163      1.0  0.00139  0.59555  0.75001  1.0000
  C   C164      1.0  0.95621  0.55733  0.75001  1.0000
  C   C165      1.0  0.95482  0.47711  0.75001  1.0000
  C   C166      1.0  0.99860  0.43511  0.75001  1.0000
  C   C167      1.0  0.04378  0.47333  0.75000  1.0000
  C   C168      1.0  0.04518  0.55356  0.75000  1.0000
  H   H55       1.0  0.00244  0.65572  0.75001  1.0000
  O   O61       1.0  0.91681  0.59513  0.75001  1.0000
  O   O62       1.0  0.91416  0.44271  0.75001  1.0000
  H   H56       1.0  0.99756  0.37495  0.75001  1.0000
  O   O63       1.0  0.08319  0.43554  0.75000  1.0000
  O   O64       1.0  0.08584  0.58796  0.75000  1.0000
  Cu  Cu1       1.0  0.24435  0.25331  0.00010  1.0000
  Cu  Cu2       1.0  0.75575  0.77754  0.99990  1.0000
  Cu  Cu3       1.0  0.25564  0.75336  0.50000  1.0000
  Cu  Cu4       1.0  0.74426  0.27754  0.50000  1.0000
