data_image0
_chemical_formula_structural       Fe8C6HO2HO2C6HO2HO2C6HO2HO2C6HO2HO2C6HO2HO2C6HO2HO2C6HO2HO2C6HO2HO2C6HO2HO2C6HO2HO2C6HO2HO2C6HO2HO2
_chemical_formula_sum              "Fe8 C72 H24 O48"
_cell_length_a       27.6105
_cell_length_b       27.6105
_cell_length_c       13.2153
_cell_angle_alpha    90
_cell_angle_beta     90
_cell_angle_gamma    90

_space_group_name_H-M_alt    "P 1"
_space_group_IT_number       1

loop_
  _space_group_symop_operation_xyz
  'x, y, z'

loop_
  _atom_site_type_symbol
  _atom_site_label
  _atom_site_symmetry_multiplicity
  _atom_site_fract_x
  _atom_site_fract_y
  _atom_site_fract_z
  _atom_site_occupancy
  Fe  Fe1       1.0  0.00010  0.83322  0.00010  1.0000
  Fe  Fe2       1.0  0.16678  0.00010  0.75000  1.0000
  Fe  Fe3       1.0  0.00010  0.16678  0.50000  1.0000
  Fe  Fe4       1.0  0.83322  0.00010  0.25000  1.0000
  Fe  Fe5       1.0  0.00010  0.56708  0.00010  1.0000
  Fe  Fe6       1.0  0.43292  0.00010  0.75000  1.0000
  Fe  Fe7       1.0  0.00010  0.43292  0.50000  1.0000
  Fe  Fe8       1.0  0.56708  0.00010  0.25000  1.0000
  C   C1        1.0  0.04802  0.70015  0.03473  1.0000
  C   C2        1.0  0.02406  0.65624  0.01741  1.0000
  C   C3        1.0  0.97614  0.65624  0.98279  1.0000
  C   C4        1.0  0.95218  0.70015  0.96547  1.0000
  C   C5        1.0  0.97614  0.74406  0.98279  1.0000
  C   C6        1.0  0.02406  0.74406  0.01741  1.0000
  H   H1        1.0  0.08396  0.70015  0.06069  1.0000
  O   O1        1.0  0.04562  0.61672  0.03299  1.0000
  O   O2        1.0  0.95458  0.61672  0.96721  1.0000
  H   H2        1.0  0.91624  0.70015  0.93951  1.0000
  O   O3        1.0  0.95458  0.78358  0.96721  1.0000
  O   O4        1.0  0.04562  0.78358  0.03299  1.0000
  C   C7        1.0  0.29985  0.95218  0.71537  1.0000
  C   C8        1.0  0.34376  0.97614  0.73269  1.0000
  C   C9        1.0  0.34376  0.02406  0.76731  1.0000
  C   C10       1.0  0.29985  0.04802  0.78463  1.0000
  C   C11       1.0  0.25594  0.02406  0.76731  1.0000
  C   C12       1.0  0.25594  0.97614  0.73269  1.0000
  H   H3        1.0  0.29985  0.91624  0.68941  1.0000
  O   O5        1.0  0.38328  0.95458  0.71711  1.0000
  O   O6        1.0  0.38328  0.04562  0.78289  1.0000
  H   H4        1.0  0.29985  0.08396  0.81059  1.0000
  O   O7        1.0  0.21642  0.04562  0.78289  1.0000
  O   O8        1.0  0.21642  0.95458  0.71711  1.0000
  C   C13       1.0  0.05030  0.29985  0.51491  1.0000
  C   C14       1.0  0.02520  0.34376  0.50746  1.0000
  C   C15       1.0  0.97500  0.34376  0.49254  1.0000
  C   C16       1.0  0.94990  0.29985  0.48509  1.0000
  C   C17       1.0  0.97500  0.25594  0.49254  1.0000
  C   C18       1.0  0.02520  0.25594  0.50746  1.0000
  H   H5        1.0  0.08795  0.29985  0.52610  1.0000
  O   O9        1.0  0.04779  0.38328  0.51417  1.0000
  O   O10       1.0  0.95241  0.38328  0.48583  1.0000
  H   H6        1.0  0.91225  0.29985  0.47390  1.0000
  O   O11       1.0  0.95241  0.21642  0.48583  1.0000
  O   O12       1.0  0.04779  0.21642  0.51417  1.0000
  C   C19       1.0  0.70015  0.94990  0.23509  1.0000
  C   C20       1.0  0.65624  0.97500  0.24254  1.0000
  C   C21       1.0  0.65624  0.02520  0.25746  1.0000
  C   C22       1.0  0.70015  0.05030  0.26491  1.0000
  C   C23       1.0  0.74406  0.02520  0.25746  1.0000
  C   C24       1.0  0.74406  0.97500  0.24254  1.0000
  H   H7        1.0  0.70015  0.91225  0.22390  1.0000
  O   O13       1.0  0.61672  0.95241  0.23583  1.0000
  O   O14       1.0  0.61672  0.04779  0.26417  1.0000
  H   H8        1.0  0.70015  0.08795  0.27610  1.0000
  O   O15       1.0  0.78358  0.04779  0.26417  1.0000
  O   O16       1.0  0.78358  0.95241  0.23583  1.0000
  C   C25       1.0  0.09677  0.93258  0.96983  1.0000
  C   C26       1.0  0.12101  0.95021  0.88439  1.0000
  C   C27       1.0  0.11300  0.92897  0.78966  1.0000
  C   C28       1.0  0.08074  0.89010  0.78037  1.0000
  C   C29       1.0  0.05650  0.87247  0.86581  1.0000
  C   C30       1.0  0.06451  0.89371  0.96054  1.0000
  H   H9        1.0  0.10278  0.94851  0.04088  1.0000
  O   O17       1.0  0.15004  0.98519  0.89274  1.0000
  O   O18       1.0  0.13482  0.94484  0.71276  1.0000
  H   H10       1.0  0.07474  0.87418  0.70932  1.0000
  O   O19       1.0  0.02747  0.83749  0.85745  1.0000
  O   O20       1.0  0.04269  0.87784  0.03744  1.0000
  C   C31       1.0  0.08124  0.11032  0.71949  1.0000
  C   C32       1.0  0.11325  0.07124  0.71032  1.0000
  C   C33       1.0  0.12077  0.04958  0.61583  1.0000
  C   C34       1.0  0.09628  0.06700  0.53051  1.0000
  C   C35       1.0  0.06427  0.10608  0.53968  1.0000
  C   C36       1.0  0.05675  0.12774  0.63417  1.0000
  H   H11       1.0  0.07560  0.12656  0.79036  1.0000
  O   O21       1.0  0.13529  0.05556  0.78711  1.0000
  O   O22       1.0  0.14958  0.01441  0.60758  1.0000
  H   H12       1.0  0.10192  0.05076  0.45964  1.0000
  O   O23       1.0  0.04223  0.12176  0.46289  1.0000
  O   O24       1.0  0.02794  0.16291  0.64242  1.0000
  C   C37       1.0  0.89010  0.08074  0.46973  1.0000
  C   C38       1.0  0.92897  0.11300  0.46044  1.0000
  C   C39       1.0  0.95021  0.12101  0.36571  1.0000
  C   C40       1.0  0.93258  0.09677  0.28027  1.0000
  C   C41       1.0  0.89371  0.06451  0.28956  1.0000
  C   C42       1.0  0.87247  0.05650  0.38429  1.0000
  H   H13       1.0  0.87418  0.07474  0.54078  1.0000
  O   O25       1.0  0.94484  0.13482  0.53734  1.0000
  O   O26       1.0  0.98520  0.15004  0.35735  1.0000
  H   H14       1.0  0.94851  0.10278  0.20922  1.0000
  O   O27       1.0  0.87785  0.04269  0.21266  1.0000
  O   O28       1.0  0.83749  0.02747  0.39264  1.0000
  C   C43       1.0  0.93258  0.90343  0.21973  1.0000
  C   C44       1.0  0.95021  0.87919  0.13429  1.0000
  C   C45       1.0  0.92897  0.88720  0.03956  1.0000
  C   C46       1.0  0.89010  0.91946  0.03027  1.0000
  C   C47       1.0  0.87247  0.94370  0.11571  1.0000
  C   C48       1.0  0.89371  0.93569  0.21044  1.0000
  H   H15       1.0  0.94851  0.89742  0.29078  1.0000
  O   O29       1.0  0.98520  0.85016  0.14265  1.0000
  O   O30       1.0  0.94484  0.86538  0.96266  1.0000
  H   H16       1.0  0.87418  0.92546  0.95922  1.0000
  O   O31       1.0  0.83749  0.97273  0.10735  1.0000
  O   O32       1.0  0.87784  0.95751  0.28734  1.0000
  C   C49       1.0  0.95870  0.52564  0.27950  1.0000
  C   C50       1.0  0.97940  0.53400  0.18438  1.0000
  C   C51       1.0  0.02080  0.50836  0.15488  1.0000
  C   C52       1.0  0.04150  0.47436  0.22050  1.0000
  C   C53       1.0  0.02080  0.46600  0.31562  1.0000
  C   C54       1.0  0.97940  0.49164  0.34512  1.0000
  H   H17       1.0  0.92764  0.54487  0.30162  1.0000
  O   O33       1.0  0.96077  0.56460  0.12532  1.0000
  O   O34       1.0  0.03943  0.51588  0.06928  1.0000
  H   H18       1.0  0.07256  0.45513  0.19838  1.0000
  O   O35       1.0  0.03943  0.43540  0.37468  1.0000
  O   O36       1.0  0.96077  0.48412  0.43072  1.0000
  C   C55       1.0  0.47436  0.95870  0.02950  1.0000
  C   C56       1.0  0.46600  0.97940  0.93438  1.0000
  C   C57       1.0  0.49164  0.02080  0.90488  1.0000
  C   C58       1.0  0.52564  0.04150  0.97050  1.0000
  C   C59       1.0  0.53400  0.02080  0.06562  1.0000
  C   C60       1.0  0.50836  0.97940  0.09512  1.0000
  H   H19       1.0  0.45513  0.92764  0.05162  1.0000
  O   O37       1.0  0.43540  0.96077  0.87532  1.0000
  O   O38       1.0  0.48412  0.03943  0.81928  1.0000
  H   H20       1.0  0.54487  0.07256  0.94838  1.0000
  O   O39       1.0  0.56460  0.03943  0.12468  1.0000
  O   O40       1.0  0.51588  0.96077  0.18072  1.0000
  C   C61       1.0  0.04150  0.52564  0.72060  1.0000
  C   C62       1.0  0.02080  0.49164  0.65498  1.0000
  C   C63       1.0  0.97940  0.46600  0.68448  1.0000
  C   C64       1.0  0.95870  0.47436  0.77960  1.0000
  C   C65       1.0  0.97940  0.50836  0.84522  1.0000
  C   C66       1.0  0.02080  0.53400  0.81572  1.0000
  H   H21       1.0  0.07256  0.54487  0.69848  1.0000
  O   O41       1.0  0.03943  0.48412  0.56938  1.0000
  O   O42       1.0  0.96077  0.43540  0.62542  1.0000
  H   H22       1.0  0.92764  0.45513  0.80172  1.0000
  O   O43       1.0  0.96077  0.51588  0.93082  1.0000
  O   O44       1.0  0.03943  0.56460  0.87478  1.0000
  C   C67       1.0  0.52564  0.95870  0.52950  1.0000
  C   C68       1.0  0.49164  0.97940  0.59512  1.0000
  C   C69       1.0  0.46600  0.02080  0.56562  1.0000
  C   C70       1.0  0.47436  0.04150  0.47050  1.0000
  C   C71       1.0  0.50836  0.02080  0.40488  1.0000
  C   C72       1.0  0.53400  0.97940  0.43438  1.0000
  H   H23       1.0  0.54487  0.92764  0.55162  1.0000
  O   O45       1.0  0.48412  0.96077  0.68072  1.0000
  O   O46       1.0  0.43540  0.03943  0.62468  1.0000
  H   H24       1.0  0.45513  0.07256  0.44838  1.0000
  O   O47       1.0  0.51588  0.03943  0.31928  1.0000
  O   O48       1.0  0.56460  0.96077  0.37532  1.0000
