data_image0
_chemical_formula_structural       Fe24C6HO2HO2C6HO2HO2C6HO2HO2C6HO2HO2C6HO2HO2C6HO2HO2C6HO2HO2C6HO2HO2C6HO2HO2C6HO2HO2C6HO2HO2C6HO2HO2C6HO2HO2C6HO2HO2C6HO2HO2C6HO2HO2C6HO2HO2C6HO2HO2C6HO2HO2C6HO2HO2C6HO2HO2C6HO2HO2C6HO2HO2C6HO2HO2C6HO2HO2C6HO2HO2C6HO2HO2C6HO2HO2C6HO2HO2C6HO2HO2C6HO2HO2C6HO2HO2C6HO2HO2C6HO2HO2C6HO2HO2C6HO2HO2
_chemical_formula_sum              "Fe24 C216 H72 O144"
_cell_length_a       31.6669
_cell_length_b       31.6669
_cell_length_c       31.6669
_cell_angle_alpha    90
_cell_angle_beta     90
_cell_angle_gamma    90

_space_group_name_H-M_alt    "P 1"
_space_group_IT_number       1

loop_
  _space_group_symop_operation_xyz
  'x, y, z'

loop_
  _atom_site_type_symbol
  _atom_site_label
  _atom_site_symmetry_multiplicity
  _atom_site_fract_x
  _atom_site_fract_y
  _atom_site_fract_z
  _atom_site_occupancy
  Fe  Fe1       1.0  0.00010  0.16667  0.66667  1.0000
  Fe  Fe2       1.0  0.83333  0.50000  0.16667  1.0000
  Fe  Fe3       1.0  0.50000  0.33333  0.66667  1.0000
  Fe  Fe4       1.0  0.66667  0.00010  0.16667  1.0000
  Fe  Fe5       1.0  0.00010  0.33333  0.83333  1.0000
  Fe  Fe6       1.0  0.66667  0.50000  0.33333  1.0000
  Fe  Fe7       1.0  0.50000  0.16667  0.83334  1.0000
  Fe  Fe8       1.0  0.83333  0.00010  0.33333  1.0000
  Fe  Fe9       1.0  0.16667  0.66666  0.00010  1.0000
  Fe  Fe10      1.0  0.16667  0.83333  0.50000  1.0000
  Fe  Fe11      1.0  0.33333  0.66667  0.50000  1.0000
  Fe  Fe12      1.0  0.33333  0.83333  0.00010  1.0000
  Fe  Fe13      1.0  0.00010  0.83333  0.33333  1.0000
  Fe  Fe14      1.0  0.16667  0.50000  0.83334  1.0000
  Fe  Fe15      1.0  0.50000  0.66667  0.33333  1.0000
  Fe  Fe16      1.0  0.33333  0.00010  0.83333  1.0000
  Fe  Fe17      1.0  0.00010  0.66667  0.16667  1.0000
  Fe  Fe18      1.0  0.33333  0.50000  0.66667  1.0000
  Fe  Fe19      1.0  0.50000  0.83333  0.16667  1.0000
  Fe  Fe20      1.0  0.16667  0.00010  0.66667  1.0000
  Fe  Fe21      1.0  0.83333  0.33333  0.00010  1.0000
  Fe  Fe22      1.0  0.83333  0.16667  0.50000  1.0000
  Fe  Fe23      1.0  0.66667  0.33333  0.50000  1.0000
  Fe  Fe24      1.0  0.66666  0.16667  0.00010  1.0000
  C   C1        1.0  0.00010  0.21874  0.78126  1.0000
  C   C2        1.0  0.00010  0.20730  0.73856  1.0000
  C   C3        1.0  0.00010  0.23856  0.70730  1.0000
  C   C4        1.0  0.00010  0.28126  0.71874  1.0000
  C   C5        1.0  0.00010  0.29270  0.76144  1.0000
  C   C6        1.0  0.00010  0.26144  0.79270  1.0000
  H   H1        1.0  0.00010  0.19529  0.80471  1.0000
  O   O1        1.0  0.00010  0.16886  0.72826  1.0000
  O   O2        1.0  0.00010  0.22826  0.66886  1.0000
  H   H2        1.0  0.00010  0.30471  0.69529  1.0000
  O   O3        1.0  0.00010  0.33114  0.77174  1.0000
  O   O4        1.0  0.00010  0.27174  0.83114  1.0000
  C   C7        1.0  0.71874  0.50000  0.21874  1.0000
  C   C8        1.0  0.76144  0.50000  0.20730  1.0000
  C   C9        1.0  0.79270  0.50000  0.23856  1.0000
  C   C10       1.0  0.78126  0.50001  0.28126  1.0000
  C   C11       1.0  0.73856  0.50000  0.29270  1.0000
  C   C12       1.0  0.70730  0.50000  0.26144  1.0000
  H   H3        1.0  0.69529  0.49999  0.19529  1.0000
  O   O5        1.0  0.77174  0.50000  0.16886  1.0000
  O   O6        1.0  0.83114  0.50001  0.22826  1.0000
  H   H4        1.0  0.80471  0.50001  0.30471  1.0000
  O   O7        1.0  0.72826  0.50001  0.33114  1.0000
  O   O8        1.0  0.66886  0.50000  0.27174  1.0000
  C   C13       1.0  0.50000  0.21874  0.71874  1.0000
  C   C14       1.0  0.50000  0.20730  0.76144  1.0000
  C   C15       1.0  0.50000  0.23856  0.79271  1.0000
  C   C16       1.0  0.50000  0.28126  0.78126  1.0000
  C   C17       1.0  0.50000  0.29270  0.73856  1.0000
  C   C18       1.0  0.50000  0.26144  0.70730  1.0000
  H   H5        1.0  0.50000  0.19529  0.69529  1.0000
  O   O9        1.0  0.50000  0.16886  0.77174  1.0000
  O   O10       1.0  0.50000  0.22826  0.83114  1.0000
  H   H6        1.0  0.50000  0.30471  0.80471  1.0000
  O   O11       1.0  0.50000  0.33114  0.72826  1.0000
  O   O12       1.0  0.50000  0.27174  0.66886  1.0000
  C   C19       1.0  0.71874  0.00010  0.28126  1.0000
  C   C20       1.0  0.70730  0.00010  0.23856  1.0000
  C   C21       1.0  0.73856  0.00010  0.20730  1.0000
  C   C22       1.0  0.78126  0.00010  0.21874  1.0000
  C   C23       1.0  0.79270  0.00010  0.26144  1.0000
  C   C24       1.0  0.76144  0.00010  0.29271  1.0000
  H   H7        1.0  0.69529  0.00010  0.30471  1.0000
  O   O13       1.0  0.66886  0.00010  0.22826  1.0000
  O   O14       1.0  0.72826  0.00010  0.16886  1.0000
  H   H8        1.0  0.80471  0.00010  0.19529  1.0000
  O   O15       1.0  0.83114  0.00010  0.27174  1.0000
  O   O16       1.0  0.77174  0.00010  0.33114  1.0000
  C   C25       1.0  0.28126  0.71874  0.00010  1.0000
  C   C26       1.0  0.29270  0.76144  0.00010  1.0000
  C   C27       1.0  0.26144  0.79270  0.00010  1.0000
  C   C28       1.0  0.21874  0.78126  0.00010  1.0000
  C   C29       1.0  0.20730  0.73856  0.00010  1.0000
  C   C30       1.0  0.23856  0.70730  0.00010  1.0000
  H   H9        1.0  0.30471  0.69529  0.00010  1.0000
  O   O17       1.0  0.33114  0.77174  0.00010  1.0000
  O   O18       1.0  0.27174  0.83114  0.00010  1.0000
  H   H10       1.0  0.19529  0.80470  0.00010  1.0000
  O   O19       1.0  0.16886  0.72826  0.00010  1.0000
  O   O20       1.0  0.22826  0.66886  0.00010  1.0000
  C   C31       1.0  0.21874  0.71874  0.50000  1.0000
  C   C32       1.0  0.20730  0.76144  0.50000  1.0000
  C   C33       1.0  0.23856  0.79270  0.50000  1.0000
  C   C34       1.0  0.28126  0.78126  0.50000  1.0000
  C   C35       1.0  0.29270  0.73856  0.50000  1.0000
  C   C36       1.0  0.26144  0.70730  0.50000  1.0000
  H   H11       1.0  0.19529  0.69529  0.50000  1.0000
  O   O21       1.0  0.16886  0.77174  0.50000  1.0000
  O   O22       1.0  0.22826  0.83114  0.50000  1.0000
  H   H12       1.0  0.30471  0.80471  0.50000  1.0000
  O   O23       1.0  0.33114  0.72826  0.50000  1.0000
  O   O24       1.0  0.27174  0.66886  0.50000  1.0000
  C   C37       1.0  0.00010  0.78126  0.21874  1.0000
  C   C38       1.0  0.00010  0.73856  0.20730  1.0000
  C   C39       1.0  0.00010  0.70730  0.23856  1.0000
  C   C40       1.0  0.00010  0.71874  0.28126  1.0000
  C   C41       1.0  0.00010  0.76144  0.29271  1.0000
  C   C42       1.0  0.00010  0.79270  0.26144  1.0000
  H   H13       1.0  0.00010  0.80471  0.19529  1.0000
  O   O25       1.0  0.00010  0.72826  0.16886  1.0000
  O   O26       1.0  0.00010  0.66886  0.22826  1.0000
  H   H14       1.0  0.00010  0.69529  0.30471  1.0000
  O   O27       1.0  0.00010  0.77174  0.33114  1.0000
  O   O28       1.0  0.00010  0.83114  0.27174  1.0000
  C   C43       1.0  0.28126  0.50000  0.78126  1.0000
  C   C44       1.0  0.23856  0.50000  0.79271  1.0000
  C   C45       1.0  0.20730  0.50000  0.76144  1.0000
  C   C46       1.0  0.21874  0.50000  0.71874  1.0000
  C   C47       1.0  0.26144  0.50000  0.70730  1.0000
  C   C48       1.0  0.29270  0.50000  0.73856  1.0000
  H   H15       1.0  0.30471  0.50000  0.80471  1.0000
  O   O29       1.0  0.22826  0.50000  0.83114  1.0000
  O   O30       1.0  0.16886  0.50000  0.77174  1.0000
  H   H16       1.0  0.19529  0.50000  0.69529  1.0000
  O   O31       1.0  0.27174  0.50000  0.66886  1.0000
  O   O32       1.0  0.33114  0.50000  0.72826  1.0000
  C   C49       1.0  0.50000  0.71874  0.21874  1.0000
  C   C50       1.0  0.50000  0.70730  0.26144  1.0000
  C   C51       1.0  0.50000  0.73856  0.29270  1.0000
  C   C52       1.0  0.50000  0.78126  0.28126  1.0000
  C   C53       1.0  0.50000  0.79270  0.23856  1.0000
  C   C54       1.0  0.50000  0.76144  0.20730  1.0000
  H   H17       1.0  0.50000  0.69529  0.19529  1.0000
  O   O33       1.0  0.50000  0.66886  0.27174  1.0000
  O   O34       1.0  0.50000  0.72826  0.33114  1.0000
  H   H18       1.0  0.50000  0.80471  0.30471  1.0000
  O   O35       1.0  0.50000  0.83114  0.22826  1.0000
  O   O36       1.0  0.50000  0.77174  0.16886  1.0000
  C   C55       1.0  0.28126  0.00010  0.71874  1.0000
  C   C56       1.0  0.23856  0.00010  0.70730  1.0000
  C   C57       1.0  0.20730  0.00010  0.73856  1.0000
  C   C58       1.0  0.21874  0.00010  0.78126  1.0000
  C   C59       1.0  0.26144  0.00010  0.79271  1.0000
  C   C60       1.0  0.29270  0.00010  0.76144  1.0000
  H   H19       1.0  0.30471  0.00010  0.69529  1.0000
  O   O37       1.0  0.22826  0.00010  0.66886  1.0000
  O   O38       1.0  0.16886  0.00010  0.72826  1.0000
  H   H20       1.0  0.19529  0.00010  0.80471  1.0000
  O   O39       1.0  0.27174  0.00010  0.83114  1.0000
  O   O40       1.0  0.33114  0.00010  0.77174  1.0000
  C   C61       1.0  0.78126  0.21874  0.00010  1.0000
  C   C62       1.0  0.79270  0.26144  0.00010  1.0000
  C   C63       1.0  0.76144  0.29270  0.00010  1.0000
  C   C64       1.0  0.71874  0.28126  0.00010  1.0000
  C   C65       1.0  0.70730  0.23856  0.00010  1.0000
  C   C66       1.0  0.73856  0.20730  0.00010  1.0000
  H   H21       1.0  0.80470  0.19529  0.00010  1.0000
  O   O41       1.0  0.83114  0.27174  0.00010  1.0000
  O   O42       1.0  0.77174  0.33114  0.00010  1.0000
  H   H22       1.0  0.69529  0.30471  0.00010  1.0000
  O   O43       1.0  0.66886  0.22826  0.00010  1.0000
  O   O44       1.0  0.72826  0.16886  0.00010  1.0000
  C   C67       1.0  0.78126  0.28126  0.50000  1.0000
  C   C68       1.0  0.79270  0.23856  0.50000  1.0000
  C   C69       1.0  0.76144  0.20730  0.50000  1.0000
  C   C70       1.0  0.71874  0.21874  0.50000  1.0000
  C   C71       1.0  0.70730  0.26144  0.50000  1.0000
  C   C72       1.0  0.73856  0.29270  0.50000  1.0000
  H   H23       1.0  0.80471  0.30471  0.50000  1.0000
  O   O45       1.0  0.83114  0.22826  0.50000  1.0000
  O   O46       1.0  0.77174  0.16886  0.50000  1.0000
  H   H24       1.0  0.69529  0.19529  0.50000  1.0000
  O   O47       1.0  0.66886  0.27174  0.50000  1.0000
  O   O48       1.0  0.72826  0.33114  0.50000  1.0000
  C   C73       1.0  0.11459  0.11469  0.66667  1.0000
  C   C74       1.0  0.07189  0.12614  0.66667  1.0000
  C   C75       1.0  0.04063  0.09488  0.66667  1.0000
  C   C76       1.0  0.05207  0.05217  0.66667  1.0000
  C   C77       1.0  0.09478  0.04073  0.66667  1.0000
  C   C78       1.0  0.12604  0.07199  0.66667  1.0000
  H   H25       1.0  0.13804  0.13814  0.66667  1.0000
  O   O49       1.0  0.06159  0.16457  0.66667  1.0000
  O   O50       1.0  0.00220  0.10517  0.66667  1.0000
  H   H26       1.0  0.02863  0.02873  0.66667  1.0000
  O   O51       1.0  0.10507  0.00230  0.66667  1.0000
  O   O52       1.0  0.16447  0.06169  0.66667  1.0000
  C   C79       1.0  0.88551  0.61460  0.16667  1.0000
  C   C80       1.0  0.87406  0.57189  0.16667  1.0000
  C   C81       1.0  0.90532  0.54063  0.16667  1.0000
  C   C82       1.0  0.94803  0.55207  0.16667  1.0000
  C   C83       1.0  0.95947  0.59478  0.16667  1.0000
  C   C84       1.0  0.92821  0.62604  0.16667  1.0000
  H   H27       1.0  0.86206  0.63804  0.16667  1.0000
  O   O53       1.0  0.83563  0.56159  0.16667  1.0000
  O   O54       1.0  0.89503  0.50220  0.16667  1.0000
  H   H28       1.0  0.97147  0.52863  0.16667  1.0000
  O   O55       1.0  0.99790  0.60507  0.16667  1.0000
  O   O56       1.0  0.93851  0.66447  0.16667  1.0000
  C   C85       1.0  0.38541  0.38541  0.66667  1.0000
  C   C86       1.0  0.37396  0.42811  0.66667  1.0000
  C   C87       1.0  0.40522  0.45937  0.66667  1.0000
  C   C88       1.0  0.44793  0.44793  0.66667  1.0000
  C   C89       1.0  0.45937  0.40522  0.66667  1.0000
  C   C90       1.0  0.42811  0.37396  0.66667  1.0000
  H   H29       1.0  0.36196  0.36196  0.66667  1.0000
  O   O57       1.0  0.33553  0.43841  0.66667  1.0000
  O   O58       1.0  0.39493  0.49780  0.66667  1.0000
  H   H30       1.0  0.47137  0.47137  0.66667  1.0000
  O   O59       1.0  0.49780  0.39493  0.66667  1.0000
  O   O60       1.0  0.43841  0.33553  0.66667  1.0000
  C   C91       1.0  0.55207  0.94803  0.16667  1.0000
  C   C92       1.0  0.54063  0.90532  0.16667  1.0000
  C   C93       1.0  0.57189  0.87406  0.16667  1.0000
  C   C94       1.0  0.61460  0.88551  0.16667  1.0000
  C   C95       1.0  0.62604  0.92821  0.16667  1.0000
  C   C96       1.0  0.59478  0.95947  0.16667  1.0000
  H   H31       1.0  0.52863  0.97147  0.16667  1.0000
  O   O61       1.0  0.50220  0.89503  0.16667  1.0000
  O   O62       1.0  0.56159  0.83563  0.16667  1.0000
  H   H32       1.0  0.63804  0.86206  0.16667  1.0000
  O   O63       1.0  0.66447  0.93851  0.16667  1.0000
  O   O64       1.0  0.60507  0.99790  0.16667  1.0000
  C   C97       1.0  0.11469  0.38541  0.83333  1.0000
  C   C98       1.0  0.12614  0.42811  0.83333  1.0000
  C   C99       1.0  0.09487  0.45937  0.83333  1.0000
  C   C100      1.0  0.05217  0.44793  0.83333  1.0000
  C   C101      1.0  0.04073  0.40522  0.83333  1.0000
  C   C102      1.0  0.07199  0.37396  0.83333  1.0000
  H   H33       1.0  0.13814  0.36196  0.83333  1.0000
  O   O65       1.0  0.16457  0.43841  0.83333  1.0000
  O   O66       1.0  0.10517  0.49780  0.83334  1.0000
  H   H34       1.0  0.02872  0.47137  0.83334  1.0000
  O   O67       1.0  0.00230  0.39493  0.83333  1.0000
  O   O68       1.0  0.06169  0.33553  0.83333  1.0000
  C   C103      1.0  0.61459  0.61459  0.33333  1.0000
  C   C104      1.0  0.62604  0.57189  0.33333  1.0000
  C   C105      1.0  0.59478  0.54063  0.33333  1.0000
  C   C106      1.0  0.55207  0.55207  0.33333  1.0000
  C   C107      1.0  0.54063  0.59478  0.33333  1.0000
  C   C108      1.0  0.57189  0.62604  0.33333  1.0000
  H   H35       1.0  0.63804  0.63804  0.33333  1.0000
  O   O69       1.0  0.66447  0.56159  0.33333  1.0000
  O   O70       1.0  0.60507  0.50220  0.33333  1.0000
  H   H36       1.0  0.52863  0.52863  0.33333  1.0000
  O   O71       1.0  0.50220  0.60507  0.33333  1.0000
  O   O72       1.0  0.56159  0.66447  0.33333  1.0000
  C   C109      1.0  0.38541  0.11460  0.83333  1.0000
  C   C110      1.0  0.37396  0.07189  0.83333  1.0000
  C   C111      1.0  0.40522  0.04063  0.83334  1.0000
  C   C112      1.0  0.44793  0.05207  0.83334  1.0000
  C   C113      1.0  0.45937  0.09478  0.83334  1.0000
  C   C114      1.0  0.42811  0.12604  0.83333  1.0000
  H   H37       1.0  0.36196  0.13804  0.83333  1.0000
  O   O73       1.0  0.33553  0.06159  0.83333  1.0000
  O   O74       1.0  0.39493  0.00220  0.83334  1.0000
  H   H38       1.0  0.47137  0.02863  0.83334  1.0000
  O   O75       1.0  0.49780  0.10507  0.83334  1.0000
  O   O76       1.0  0.43841  0.16447  0.83333  1.0000
  C   C115      1.0  0.88541  0.88551  0.33333  1.0000
  C   C116      1.0  0.92811  0.87406  0.33333  1.0000
  C   C117      1.0  0.95937  0.90532  0.33333  1.0000
  C   C118      1.0  0.94793  0.94803  0.33333  1.0000
  C   C119      1.0  0.90522  0.95947  0.33333  1.0000
  C   C120      1.0  0.87396  0.92821  0.33333  1.0000
  H   H39       1.0  0.86196  0.86206  0.33333  1.0000
  O   O77       1.0  0.93841  0.83563  0.33333  1.0000
  O   O78       1.0  0.99780  0.89503  0.33333  1.0000
  H   H40       1.0  0.97137  0.97147  0.33333  1.0000
  O   O79       1.0  0.89493  0.99790  0.33333  1.0000
  O   O80       1.0  0.83553  0.93851  0.33333  1.0000
  C   C121      1.0  0.66667  0.11470  0.11460  1.0000
  C   C122      1.0  0.66666  0.12614  0.07190  1.0000
  C   C123      1.0  0.66666  0.09488  0.04063  1.0000
  C   C124      1.0  0.66667  0.05217  0.05208  1.0000
  C   C125      1.0  0.66667  0.04073  0.09478  1.0000
  C   C126      1.0  0.66667  0.07199  0.12604  1.0000
  H   H41       1.0  0.66667  0.13814  0.13805  1.0000
  O   O81       1.0  0.66666  0.16457  0.06160  1.0000
  O   O82       1.0  0.66666  0.10518  0.00220  1.0000
  H   H42       1.0  0.66667  0.02873  0.02863  1.0000
  O   O83       1.0  0.66667  0.00230  0.10508  1.0000
  O   O84       1.0  0.66667  0.06169  0.16447  1.0000
  C   C127      1.0  0.88551  0.16667  0.61460  1.0000
  C   C128      1.0  0.87406  0.16667  0.57189  1.0000
  C   C129      1.0  0.90532  0.16667  0.54063  1.0000
  C   C130      1.0  0.94803  0.16667  0.55207  1.0000
  C   C131      1.0  0.95947  0.16667  0.59478  1.0000
  C   C132      1.0  0.92821  0.16667  0.62604  1.0000
  H   H43       1.0  0.86206  0.16667  0.63804  1.0000
  O   O85       1.0  0.83563  0.16667  0.56159  1.0000
  O   O86       1.0  0.89503  0.16667  0.50220  1.0000
  H   H44       1.0  0.97147  0.16667  0.52863  1.0000
  O   O87       1.0  0.99790  0.16667  0.60507  1.0000
  O   O88       1.0  0.93851  0.16667  0.66447  1.0000
  C   C133      1.0  0.83333  0.38541  0.11460  1.0000
  C   C134      1.0  0.83333  0.37396  0.07189  1.0000
  C   C135      1.0  0.83333  0.40522  0.04063  1.0000
  C   C136      1.0  0.83333  0.44793  0.05207  1.0000
  C   C137      1.0  0.83333  0.45937  0.09478  1.0000
  C   C138      1.0  0.83333  0.42811  0.12604  1.0000
  H   H45       1.0  0.83333  0.36196  0.13804  1.0000
  O   O89       1.0  0.83333  0.33553  0.06160  1.0000
  O   O90       1.0  0.83333  0.39493  0.00220  1.0000
  H   H46       1.0  0.83333  0.47137  0.02863  1.0000
  O   O91       1.0  0.83333  0.49780  0.10507  1.0000
  O   O92       1.0  0.83333  0.43841  0.16447  1.0000
  C   C139      1.0  0.55207  0.33333  0.55207  1.0000
  C   C140      1.0  0.59478  0.33333  0.54063  1.0000
  C   C141      1.0  0.62604  0.33333  0.57189  1.0000
  C   C142      1.0  0.61459  0.33333  0.61460  1.0000
  C   C143      1.0  0.57189  0.33333  0.62604  1.0000
  C   C144      1.0  0.54063  0.33333  0.59478  1.0000
  H   H47       1.0  0.52863  0.33333  0.52863  1.0000
  O   O93       1.0  0.60507  0.33333  0.50220  1.0000
  O   O94       1.0  0.66447  0.33333  0.56159  1.0000
  H   H48       1.0  0.63804  0.33333  0.63804  1.0000
  O   O95       1.0  0.56159  0.33333  0.66447  1.0000
  O   O96       1.0  0.50220  0.33333  0.60508  1.0000
  C   C145      1.0  0.66667  0.38541  0.38541  1.0000
  C   C146      1.0  0.66667  0.37396  0.42811  1.0000
  C   C147      1.0  0.66667  0.40522  0.45937  1.0000
  C   C148      1.0  0.66667  0.44793  0.44793  1.0000
  C   C149      1.0  0.66667  0.45937  0.40522  1.0000
  C   C150      1.0  0.66667  0.42811  0.37396  1.0000
  H   H49       1.0  0.66667  0.36196  0.36196  1.0000
  O   O97       1.0  0.66667  0.33553  0.43841  1.0000
  O   O98       1.0  0.66667  0.39493  0.49780  1.0000
  H   H50       1.0  0.66667  0.47137  0.47137  1.0000
  O   O99       1.0  0.66667  0.49780  0.39493  1.0000
  O   O100      1.0  0.66667  0.43841  0.33553  1.0000
  C   C151      1.0  0.61460  0.16667  0.88550  1.0000
  C   C152      1.0  0.57189  0.16667  0.87406  1.0000
  C   C153      1.0  0.54063  0.16667  0.90532  1.0000
  C   C154      1.0  0.55207  0.16667  0.94803  1.0000
  C   C155      1.0  0.59477  0.16667  0.95947  1.0000
  C   C156      1.0  0.62604  0.16667  0.92821  1.0000
  H   H51       1.0  0.63804  0.16667  0.86206  1.0000
  O   O101      1.0  0.56160  0.16667  0.83563  1.0000
  O   O102      1.0  0.50220  0.16667  0.89502  1.0000
  H   H52       1.0  0.52862  0.16667  0.97147  1.0000
  O   O103      1.0  0.60507  0.16667  0.99790  1.0000
  O   O104      1.0  0.66447  0.16667  0.93851  1.0000
  C   C157      1.0  0.83333  0.11459  0.38541  1.0000
  C   C158      1.0  0.83333  0.07189  0.37396  1.0000
  C   C159      1.0  0.83333  0.04063  0.40523  1.0000
  C   C160      1.0  0.83333  0.05207  0.44793  1.0000
  C   C161      1.0  0.83333  0.09478  0.45937  1.0000
  C   C162      1.0  0.83333  0.12604  0.42811  1.0000
  H   H53       1.0  0.83333  0.13804  0.36196  1.0000
  O   O105      1.0  0.83333  0.06159  0.33553  1.0000
  O   O106      1.0  0.83333  0.00220  0.39493  1.0000
  H   H54       1.0  0.83333  0.02863  0.47137  1.0000
  O   O107      1.0  0.83333  0.10507  0.49780  1.0000
  O   O108      1.0  0.83333  0.16447  0.43841  1.0000
  C   C163      1.0  0.94803  0.33333  0.94793  1.0000
  C   C164      1.0  0.90532  0.33333  0.95937  1.0000
  C   C165      1.0  0.87406  0.33333  0.92811  1.0000
  C   C166      1.0  0.88551  0.33333  0.88541  1.0000
  C   C167      1.0  0.92821  0.33333  0.87396  1.0000
  C   C168      1.0  0.95947  0.33333  0.90523  1.0000
  H   H55       1.0  0.97147  0.33333  0.97138  1.0000
  O   O109      1.0  0.89503  0.33333  0.99781  1.0000
  O   O110      1.0  0.83563  0.33333  0.93841  1.0000
  H   H56       1.0  0.86206  0.33333  0.86196  1.0000
  O   O111      1.0  0.93851  0.33333  0.83553  1.0000
  O   O112      1.0  0.99790  0.33333  0.89493  1.0000
  C   C169      1.0  0.11460  0.66667  0.11469  1.0000
  C   C170      1.0  0.07189  0.66667  0.12614  1.0000
  C   C171      1.0  0.04063  0.66667  0.09487  1.0000
  C   C172      1.0  0.05207  0.66667  0.05217  1.0000
  C   C173      1.0  0.09478  0.66666  0.04073  1.0000
  C   C174      1.0  0.12604  0.66666  0.07199  1.0000
  H   H57       1.0  0.13804  0.66667  0.13814  1.0000
  O   O113      1.0  0.06159  0.66667  0.16457  1.0000
  O   O114      1.0  0.00220  0.66667  0.10517  1.0000
  H   H58       1.0  0.02863  0.66667  0.02872  1.0000
  O   O115      1.0  0.10508  0.66666  0.00230  1.0000
  O   O116      1.0  0.16447  0.66666  0.06169  1.0000
  C   C175      1.0  0.05207  0.83333  0.44793  1.0000
  C   C176      1.0  0.04063  0.83333  0.40523  1.0000
  C   C177      1.0  0.07189  0.83333  0.37396  1.0000
  C   C178      1.0  0.11460  0.83333  0.38541  1.0000
  C   C179      1.0  0.12604  0.83333  0.42811  1.0000
  C   C180      1.0  0.09478  0.83333  0.45937  1.0000
  H   H59       1.0  0.02863  0.83333  0.47137  1.0000
  O   O117      1.0  0.00220  0.83333  0.39493  1.0000
  O   O118      1.0  0.06159  0.83333  0.33553  1.0000
  H   H60       1.0  0.13804  0.83333  0.36196  1.0000
  O   O119      1.0  0.16447  0.83333  0.43841  1.0000
  O   O120      1.0  0.10507  0.83333  0.49780  1.0000
  C   C181      1.0  0.16667  0.55207  0.94802  1.0000
  C   C182      1.0  0.16667  0.54063  0.90532  1.0000
  C   C183      1.0  0.16667  0.57189  0.87406  1.0000
  C   C184      1.0  0.16667  0.61460  0.88550  1.0000
  C   C185      1.0  0.16667  0.62604  0.92821  1.0000
  C   C186      1.0  0.16667  0.59477  0.95947  1.0000
  H   H61       1.0  0.16667  0.52862  0.97147  1.0000
  O   O121      1.0  0.16667  0.50220  0.89502  1.0000
  O   O122      1.0  0.16667  0.56159  0.83563  1.0000
  H   H62       1.0  0.16667  0.63804  0.86206  1.0000
  O   O123      1.0  0.16667  0.66447  0.93851  1.0000
  O   O124      1.0  0.16667  0.60507  0.99790  1.0000
  C   C187      1.0  0.38541  0.66667  0.38541  1.0000
  C   C188      1.0  0.42811  0.66667  0.37396  1.0000
  C   C189      1.0  0.45937  0.66667  0.40522  1.0000
  C   C190      1.0  0.44793  0.66667  0.44793  1.0000
  C   C191      1.0  0.40522  0.66667  0.45937  1.0000
  C   C192      1.0  0.37396  0.66667  0.42811  1.0000
  H   H63       1.0  0.36196  0.66667  0.36196  1.0000
  O   O125      1.0  0.43841  0.66667  0.33553  1.0000
  O   O126      1.0  0.49780  0.66667  0.39493  1.0000
  H   H64       1.0  0.47137  0.66667  0.47137  1.0000
  O   O127      1.0  0.39493  0.66667  0.49780  1.0000
  O   O128      1.0  0.33553  0.66667  0.43841  1.0000
  C   C193      1.0  0.33333  0.88551  0.88541  1.0000
  C   C194      1.0  0.33333  0.87406  0.92811  1.0000
  C   C195      1.0  0.33333  0.90532  0.95937  1.0000
  C   C196      1.0  0.33333  0.94803  0.94793  1.0000
  C   C197      1.0  0.33333  0.95947  0.90523  1.0000
  C   C198      1.0  0.33333  0.92821  0.87396  1.0000
  H   H65       1.0  0.33333  0.86206  0.86196  1.0000
  O   O129      1.0  0.33333  0.83563  0.93841  1.0000
  O   O130      1.0  0.33333  0.89503  0.99781  1.0000
  H   H66       1.0  0.33333  0.97147  0.97138  1.0000
  O   O131      1.0  0.33333  0.99790  0.89493  1.0000
  O   O132      1.0  0.33333  0.93851  0.83553  1.0000
  C   C199      1.0  0.44793  0.83333  0.05207  1.0000
  C   C200      1.0  0.40522  0.83333  0.04063  1.0000
  C   C201      1.0  0.37396  0.83333  0.07189  1.0000
  C   C202      1.0  0.38541  0.83333  0.11460  1.0000
  C   C203      1.0  0.42811  0.83333  0.12604  1.0000
  C   C204      1.0  0.45937  0.83333  0.09478  1.0000
  H   H67       1.0  0.47137  0.83334  0.02863  1.0000
  O   O133      1.0  0.39493  0.83334  0.00220  1.0000
  O   O134      1.0  0.33553  0.83333  0.06160  1.0000
  H   H68       1.0  0.36196  0.83333  0.13804  1.0000
  O   O135      1.0  0.43841  0.83333  0.16447  1.0000
  O   O136      1.0  0.49780  0.83333  0.10507  1.0000
  C   C205      1.0  0.16667  0.94803  0.55207  1.0000
  C   C206      1.0  0.16667  0.90532  0.54063  1.0000
  C   C207      1.0  0.16667  0.87406  0.57189  1.0000
  C   C208      1.0  0.16667  0.88551  0.61460  1.0000
  C   C209      1.0  0.16667  0.92821  0.62604  1.0000
  C   C210      1.0  0.16667  0.95947  0.59478  1.0000
  H   H69       1.0  0.16667  0.97147  0.52863  1.0000
  O   O137      1.0  0.16667  0.89503  0.50220  1.0000
  O   O138      1.0  0.16667  0.83563  0.56159  1.0000
  H   H70       1.0  0.16667  0.86206  0.63804  1.0000
  O   O139      1.0  0.16667  0.93851  0.66447  1.0000
  O   O140      1.0  0.16667  0.99790  0.60507  1.0000
  C   C211      1.0  0.33333  0.61459  0.61460  1.0000
  C   C212      1.0  0.33333  0.62604  0.57189  1.0000
  C   C213      1.0  0.33333  0.59478  0.54063  1.0000
  C   C214      1.0  0.33333  0.55207  0.55207  1.0000
  C   C215      1.0  0.33333  0.54063  0.59478  1.0000
  C   C216      1.0  0.33333  0.57189  0.62604  1.0000
  H   H71       1.0  0.33333  0.63804  0.63804  1.0000
  O   O141      1.0  0.33333  0.66447  0.56159  1.0000
  O   O142      1.0  0.33333  0.60507  0.50220  1.0000
  H   H72       1.0  0.33333  0.52863  0.52863  1.0000
  O   O143      1.0  0.33333  0.50220  0.60507  1.0000
  O   O144      1.0  0.33333  0.56159  0.66447  1.0000
