data_image0
_chemical_formula_structural       FeC18HO2H2O2H2O2HFeC18HO2H2O2H2O2HFeC18HO2H2O2H2O2HFeC18HO2H2O2H2O2HC6O2HO2HCuC6O2HO2HCuC6O2HO2HCuC6O2HO2HCuC6O2HO2HCuC6O2HO2HCuC6O2HO2HCuC6O2HO2HCuC6O2HO2HCuC6O2HO2HCuC6O2HO2HCuC6O2HO2HCu
_chemical_formula_sum              "Fe4 C144 H48 O72 Cu12"
_cell_length_a       41.1002
_cell_length_b       41.101
_cell_length_c       41.1006
_cell_angle_alpha    89.9998
_cell_angle_beta     90.0002
_cell_angle_gamma    89.9999

_space_group_name_H-M_alt    "P 1"
_space_group_IT_number       1

loop_
  _space_group_symop_operation_xyz
  'x, y, z'

loop_
  _atom_site_type_symbol
  _atom_site_label
  _atom_site_symmetry_multiplicity
  _atom_site_fract_x
  _atom_site_fract_y
  _atom_site_fract_z
  _atom_site_occupancy
  Fe  Fe1       1.0  0.12500  0.12500  0.12500  1.0000
  C   C1        1.0  0.13890  0.90281  0.36109  1.0000
  C   C2        1.0  0.11109  0.88891  0.34719  1.0000
  C   C3        1.0  0.09719  0.86110  0.36109  1.0000
  C   C4        1.0  0.11109  0.84719  0.38890  1.0000
  C   C5        1.0  0.13890  0.86110  0.40281  1.0000
  C   C6        1.0  0.15281  0.88891  0.38890  1.0000
  C   C7        1.0  0.09719  0.81938  0.40281  1.0000
  C   C8        1.0  0.06937  0.80547  0.38890  1.0000
  C   C9        1.0  0.05547  0.81938  0.36109  1.0000
  C   C10       1.0  0.06937  0.84719  0.34719  1.0000
  C   C11       1.0  0.15281  0.93063  0.34719  1.0000
  C   C12       1.0  0.13890  0.94453  0.31937  1.0000
  C   C13       1.0  0.11109  0.93063  0.30547  1.0000
  C   C14       1.0  0.09719  0.90281  0.31937  1.0000
  C   C15       1.0  0.18062  0.90281  0.40281  1.0000
  C   C16       1.0  0.19453  0.88891  0.43062  1.0000
  C   C17       1.0  0.18062  0.86110  0.44453  1.0000
  C   C18       1.0  0.15281  0.84719  0.43062  1.0000
  H   H1        1.0  0.10762  0.80895  0.42367  1.0000
  O   O1        1.0  0.05686  0.78044  0.40142  1.0000
  O   O2        1.0  0.03044  0.80686  0.34858  1.0000
  H   H2        1.0  0.05894  0.85762  0.32633  1.0000
  H   H3        1.0  0.17367  0.94106  0.35762  1.0000
  O   O3        1.0  0.15142  0.96956  0.30686  1.0000
  O   O4        1.0  0.09858  0.94314  0.28044  1.0000
  H   H4        1.0  0.07633  0.89238  0.30894  1.0000
  H   H5        1.0  0.19105  0.92367  0.39238  1.0000
  O   O5        1.0  0.21956  0.90142  0.44314  1.0000
  O   O6        1.0  0.19314  0.84858  0.46956  1.0000
  H   H6        1.0  0.14238  0.82633  0.44105  1.0000
  Fe  Fe2       1.0  0.37500  0.87500  0.62500  1.0000
  C   C19       1.0  0.36109  0.09719  0.86109  1.0000
  C   C20       1.0  0.38891  0.11109  0.84718  1.0000
  C   C21       1.0  0.40281  0.13891  0.86109  1.0000
  C   C22       1.0  0.38891  0.15281  0.88890  1.0000
  C   C23       1.0  0.36109  0.13891  0.90281  1.0000
  C   C24       1.0  0.34719  0.11109  0.88890  1.0000
  C   C25       1.0  0.40281  0.18062  0.90281  1.0000
  C   C26       1.0  0.43062  0.19453  0.88890  1.0000
  C   C27       1.0  0.44453  0.18062  0.86109  1.0000
  C   C28       1.0  0.43062  0.15281  0.84718  1.0000
  C   C29       1.0  0.34719  0.06938  0.84718  1.0000
  C   C30       1.0  0.36109  0.05547  0.81937  1.0000
  C   C31       1.0  0.38891  0.06938  0.80547  1.0000
  C   C32       1.0  0.40281  0.09719  0.81937  1.0000
  C   C33       1.0  0.31938  0.09719  0.90281  1.0000
  C   C34       1.0  0.30547  0.11109  0.93062  1.0000
  C   C35       1.0  0.31938  0.13891  0.94453  1.0000
  C   C36       1.0  0.34719  0.15281  0.93062  1.0000
  H   H7        1.0  0.39238  0.19105  0.92367  1.0000
  O   O7        1.0  0.44314  0.21956  0.90142  1.0000
  O   O8        1.0  0.46956  0.19314  0.84857  1.0000
  H   H8        1.0  0.44105  0.14238  0.82633  1.0000
  H   H9        1.0  0.32633  0.05895  0.85761  1.0000
  O   O9        1.0  0.34858  0.03044  0.80686  1.0000
  O   O10       1.0  0.40142  0.05686  0.78044  1.0000
  H   H10       1.0  0.42367  0.10762  0.80894  1.0000
  H   H11       1.0  0.30895  0.07633  0.89238  1.0000
  O   O11       1.0  0.28044  0.09858  0.94314  1.0000
  O   O12       1.0  0.30686  0.15142  0.96956  1.0000
  H   H12       1.0  0.35762  0.17367  0.94105  1.0000
  Fe  Fe3       1.0  0.62500  0.37500  0.87500  1.0000
  C   C37       1.0  0.88891  0.38891  0.15281  1.0000
  C   C38       1.0  0.86110  0.40281  0.13891  1.0000
  C   C39       1.0  0.84719  0.38891  0.11110  1.0000
  C   C40       1.0  0.86110  0.36110  0.09719  1.0000
  C   C41       1.0  0.88891  0.34719  0.11110  1.0000
  C   C42       1.0  0.90281  0.36110  0.13891  1.0000
  C   C43       1.0  0.84719  0.34719  0.06938  1.0000
  C   C44       1.0  0.81938  0.36110  0.05547  1.0000
  C   C45       1.0  0.80547  0.38891  0.06938  1.0000
  C   C46       1.0  0.81938  0.40281  0.09719  1.0000
  C   C47       1.0  0.90281  0.40281  0.18063  1.0000
  C   C48       1.0  0.88891  0.43063  0.19453  1.0000
  C   C49       1.0  0.86110  0.44453  0.18063  1.0000
  C   C50       1.0  0.84719  0.43063  0.15281  1.0000
  C   C51       1.0  0.93063  0.34719  0.15281  1.0000
  C   C52       1.0  0.94453  0.31938  0.13891  1.0000
  C   C53       1.0  0.93063  0.30547  0.11110  1.0000
  C   C54       1.0  0.90281  0.31938  0.09719  1.0000
  H   H13       1.0  0.85762  0.32633  0.05895  1.0000
  O   O13       1.0  0.80686  0.34858  0.03044  1.0000
  O   O14       1.0  0.78044  0.40142  0.05686  1.0000
  H   H14       1.0  0.80895  0.42367  0.10762  1.0000
  H   H15       1.0  0.92367  0.39238  0.19106  1.0000
  O   O15       1.0  0.90142  0.44314  0.21956  1.0000
  O   O16       1.0  0.84858  0.46956  0.19314  1.0000
  H   H16       1.0  0.82633  0.44106  0.14238  1.0000
  H   H17       1.0  0.94106  0.35762  0.17367  1.0000
  O   O17       1.0  0.96956  0.30686  0.15142  1.0000
  O   O18       1.0  0.94314  0.28044  0.09858  1.0000
  H   H18       1.0  0.89238  0.30895  0.07633  1.0000
  Fe  Fe4       1.0  0.87500  0.62500  0.37500  1.0000
  C   C55       1.0  0.61109  0.65281  0.61110  1.0000
  C   C56       1.0  0.59719  0.63890  0.63891  1.0000
  C   C57       1.0  0.61109  0.61109  0.65281  1.0000
  C   C58       1.0  0.63890  0.59719  0.63891  1.0000
  C   C59       1.0  0.65281  0.61109  0.61110  1.0000
  C   C60       1.0  0.63890  0.63891  0.59719  1.0000
  C   C61       1.0  0.65281  0.56937  0.65281  1.0000
  C   C62       1.0  0.63890  0.55547  0.68063  1.0000
  C   C63       1.0  0.61109  0.56937  0.69453  1.0000
  C   C64       1.0  0.59719  0.59719  0.68063  1.0000
  C   C65       1.0  0.59719  0.68062  0.59719  1.0000
  C   C66       1.0  0.56937  0.69453  0.61110  1.0000
  C   C67       1.0  0.55547  0.68062  0.63891  1.0000
  C   C68       1.0  0.56937  0.65281  0.65281  1.0000
  C   C69       1.0  0.65281  0.65281  0.56938  1.0000
  C   C70       1.0  0.68062  0.63891  0.55547  1.0000
  C   C71       1.0  0.69453  0.61109  0.56938  1.0000
  C   C72       1.0  0.68062  0.59719  0.59719  1.0000
  H   H19       1.0  0.67367  0.55895  0.64239  1.0000
  O   O19       1.0  0.65142  0.53044  0.69314  1.0000
  O   O20       1.0  0.59858  0.55686  0.71956  1.0000
  H   H20       1.0  0.57633  0.60762  0.69106  1.0000
  H   H21       1.0  0.60762  0.69105  0.57633  1.0000
  O   O21       1.0  0.55686  0.71956  0.59858  1.0000
  O   O22       1.0  0.53044  0.69314  0.65142  1.0000
  H   H22       1.0  0.55894  0.64238  0.67367  1.0000
  H   H23       1.0  0.64238  0.67367  0.55895  1.0000
  O   O23       1.0  0.69314  0.65142  0.53044  1.0000
  O   O24       1.0  0.71956  0.59858  0.55686  1.0000
  H   H24       1.0  0.69105  0.57633  0.60762  1.0000
  C   C73       1.0  0.10740  0.07352  0.16768  1.0000
  C   C74       1.0  0.14270  0.08236  0.17649  1.0000
  C   C75       1.0  0.16039  0.06387  0.20383  1.0000
  C   C76       1.0  0.14283  0.03649  0.22242  1.0000
  C   C77       1.0  0.10741  0.02761  0.21360  1.0000
  C   C78       1.0  0.08979  0.04616  0.18623  1.0000
  O   O25       1.0  0.09004  0.09167  0.14085  1.0000
  O   O26       1.0  0.15996  0.10919  0.15829  1.0000
  H   H25       1.0  0.18652  0.07045  0.21031  1.0000
  O   O27       1.0  0.16031  0.01840  0.24926  1.0000
  O   O28       1.0  0.08999  0.00010  0.23175  1.0000
  H   H26       1.0  0.06366  0.03962  0.17971  1.0000
  Cu  Cu1       1.0  0.12523  0.98266  0.26745  1.0000
  C   C79       1.0  0.33232  0.89260  0.57352  1.0000
  C   C80       1.0  0.32350  0.85730  0.58236  1.0000
  C   C81       1.0  0.29617  0.83961  0.56387  1.0000
  C   C82       1.0  0.27758  0.85717  0.53649  1.0000
  C   C83       1.0  0.28640  0.89259  0.52760  1.0000
  C   C84       1.0  0.31376  0.91021  0.54616  1.0000
  O   O29       1.0  0.35914  0.90996  0.59166  1.0000
  O   O30       1.0  0.34170  0.84004  0.60918  1.0000
  H   H27       1.0  0.28969  0.81348  0.57045  1.0000
  O   O31       1.0  0.25074  0.83969  0.51839  1.0000
  O   O32       1.0  0.26825  0.91001  0.50074  1.0000
  H   H28       1.0  0.32029  0.93634  0.53961  1.0000
  Cu  Cu2       1.0  0.23254  0.87477  0.48266  1.0000
  C   C85       1.0  0.39260  0.92648  0.66768  1.0000
  C   C86       1.0  0.35730  0.91764  0.67649  1.0000
  C   C87       1.0  0.33961  0.93613  0.70383  1.0000
  C   C88       1.0  0.35717  0.96351  0.72242  1.0000
  C   C89       1.0  0.39258  0.97239  0.71360  1.0000
  C   C90       1.0  0.41021  0.95384  0.68623  1.0000
  O   O33       1.0  0.40996  0.90833  0.64086  1.0000
  O   O34       1.0  0.34004  0.89081  0.65830  1.0000
  H   H29       1.0  0.31348  0.92955  0.71031  1.0000
  O   O35       1.0  0.33969  0.98160  0.74925  1.0000
  O   O36       1.0  0.41001  0.99990  0.73175  1.0000
  H   H30       1.0  0.43634  0.96038  0.67971  1.0000
  Cu  Cu3       1.0  0.37477  0.01734  0.76745  1.0000
  C   C91       1.0  0.16768  0.10740  0.07352  1.0000
  C   C92       1.0  0.17649  0.14270  0.08235  1.0000
  C   C93       1.0  0.20383  0.16039  0.06386  1.0000
  C   C94       1.0  0.22242  0.14283  0.03649  1.0000
  C   C95       1.0  0.21360  0.10742  0.02760  1.0000
  C   C96       1.0  0.18623  0.08979  0.04616  1.0000
  O   O37       1.0  0.14086  0.09004  0.09166  1.0000
  O   O38       1.0  0.15830  0.15996  0.10918  1.0000
  H   H31       1.0  0.21031  0.18652  0.07045  1.0000
  O   O39       1.0  0.24926  0.16031  0.01839  1.0000
  O   O40       1.0  0.23175  0.08999  0.00010  1.0000
  H   H32       1.0  0.17971  0.06366  0.03961  1.0000
  Cu  Cu4       1.0  0.26746  0.12523  0.98266  1.0000
  C   C97       1.0  0.07352  0.16768  0.10740  1.0000
  C   C98       1.0  0.08236  0.17649  0.14270  1.0000
  C   C99       1.0  0.06387  0.20383  0.16039  1.0000
  C   C100      1.0  0.03650  0.22242  0.14283  1.0000
  C   C101      1.0  0.02760  0.21361  0.10742  1.0000
  C   C102      1.0  0.04616  0.18624  0.08979  1.0000
  O   O41       1.0  0.09166  0.14086  0.09004  1.0000
  O   O42       1.0  0.10919  0.15830  0.15996  1.0000
  H   H33       1.0  0.07045  0.21031  0.18652  1.0000
  O   O43       1.0  0.01840  0.24926  0.16031  1.0000
  O   O44       1.0  0.00010  0.23175  0.08999  1.0000
  H   H34       1.0  0.03961  0.17972  0.06366  1.0000
  Cu  Cu5       1.0  0.98266  0.26746  0.12523  1.0000
  C   C103      1.0  0.58232  0.32352  0.85740  1.0000
  C   C104      1.0  0.57351  0.33235  0.89270  1.0000
  C   C105      1.0  0.54617  0.31386  0.91039  1.0000
  C   C106      1.0  0.52758  0.28649  0.89282  1.0000
  C   C107      1.0  0.53640  0.27760  0.85741  1.0000
  C   C108      1.0  0.56377  0.29616  0.83979  1.0000
  O   O45       1.0  0.60915  0.34166  0.84004  1.0000
  O   O46       1.0  0.59170  0.35918  0.90996  1.0000
  H   H35       1.0  0.53969  0.32045  0.93652  1.0000
  O   O47       1.0  0.50074  0.26839  0.91030  1.0000
  O   O48       1.0  0.51825  0.25074  0.83998  1.0000
  H   H36       1.0  0.57029  0.28961  0.81366  1.0000
  Cu  Cu6       1.0  0.48254  0.23266  0.87523  1.0000
  C   C109      1.0  0.91768  0.67648  0.35740  1.0000
  C   C110      1.0  0.92649  0.66764  0.39270  1.0000
  C   C111      1.0  0.95383  0.68614  0.41039  1.0000
  C   C112      1.0  0.97242  0.71351  0.39283  1.0000
  C   C113      1.0  0.96360  0.72240  0.35741  1.0000
  C   C114      1.0  0.93623  0.70384  0.33979  1.0000
  O   O49       1.0  0.89086  0.65834  0.34004  1.0000
  O   O50       1.0  0.90830  0.64082  0.40997  1.0000
  H   H37       1.0  0.96031  0.67955  0.43652  1.0000
  O   O51       1.0  0.99990  0.73161  0.41031  1.0000
  O   O52       1.0  0.98175  0.74926  0.33999  1.0000
  H   H38       1.0  0.92971  0.71038  0.31366  1.0000
  Cu  Cu7       1.0  0.01746  0.76734  0.37523  1.0000
  C   C115      1.0  0.42648  0.83232  0.60740  1.0000
  C   C116      1.0  0.41764  0.82351  0.64270  1.0000
  C   C117      1.0  0.43613  0.79617  0.66039  1.0000
  C   C118      1.0  0.46350  0.77758  0.64283  1.0000
  C   C119      1.0  0.47239  0.78639  0.60742  1.0000
  C   C120      1.0  0.45384  0.81376  0.58979  1.0000
  O   O53       1.0  0.40833  0.85914  0.59004  1.0000
  O   O54       1.0  0.39081  0.84170  0.65996  1.0000
  H   H39       1.0  0.42955  0.78969  0.68652  1.0000
  O   O55       1.0  0.48160  0.75074  0.66031  1.0000
  O   O56       1.0  0.49926  0.76825  0.58999  1.0000
  H   H40       1.0  0.46038  0.82028  0.56366  1.0000
  Cu  Cu8       1.0  0.51734  0.73254  0.62523  1.0000
  C   C121      1.0  0.64260  0.41767  0.82352  1.0000
  C   C122      1.0  0.60730  0.42649  0.83236  1.0000
  C   C123      1.0  0.58961  0.45383  0.81387  1.0000
  C   C124      1.0  0.60717  0.47242  0.78650  1.0000
  C   C125      1.0  0.64258  0.46360  0.77760  1.0000
  C   C126      1.0  0.66021  0.43623  0.79615  1.0000
  O   O57       1.0  0.65996  0.39085  0.84166  1.0000
  O   O58       1.0  0.59004  0.40830  0.85919  1.0000
  H   H41       1.0  0.56348  0.46032  0.82046  1.0000
  O   O59       1.0  0.58969  0.49926  0.76840  1.0000
  O   O60       1.0  0.66001  0.48174  0.75074  1.0000
  H   H42       1.0  0.68634  0.42970  0.78960  1.0000
  Cu  Cu9       1.0  0.62477  0.51746  0.73266  1.0000
  C   C127      1.0  0.67648  0.35740  0.91768  1.0000
  C   C128      1.0  0.66764  0.39270  0.92649  1.0000
  C   C129      1.0  0.68613  0.41039  0.95383  1.0000
  C   C130      1.0  0.71351  0.39283  0.97242  1.0000
  C   C131      1.0  0.72240  0.35742  0.96360  1.0000
  C   C132      1.0  0.70384  0.33979  0.93624  1.0000
  O   O61       1.0  0.65834  0.34004  0.89086  1.0000
  O   O62       1.0  0.64081  0.40996  0.90830  1.0000
  H   H43       1.0  0.67955  0.43652  0.96031  1.0000
  O   O63       1.0  0.73160  0.41031  0.99990  1.0000
  O   O64       1.0  0.74926  0.33999  0.98175  1.0000
  H   H44       1.0  0.71039  0.31366  0.92972  1.0000
  Cu  Cu10      1.0  0.76734  0.37523  0.01746  1.0000
  C   C133      1.0  0.85740  0.58232  0.32353  1.0000
  C   C134      1.0  0.89270  0.57351  0.33236  1.0000
  C   C135      1.0  0.91039  0.54617  0.31387  1.0000
  C   C136      1.0  0.89283  0.52758  0.28650  1.0000
  C   C137      1.0  0.85742  0.53640  0.27761  1.0000
  C   C138      1.0  0.83979  0.56376  0.29616  1.0000
  O   O65       1.0  0.84004  0.60914  0.34167  1.0000
  O   O66       1.0  0.90996  0.59170  0.35919  1.0000
  H   H45       1.0  0.93652  0.53969  0.32045  1.0000
  O   O67       1.0  0.91031  0.50074  0.26840  1.0000
  O   O68       1.0  0.83999  0.51825  0.25074  1.0000
  H   H46       1.0  0.81366  0.57029  0.28962  1.0000
  Cu  Cu11      1.0  0.87523  0.48254  0.23266  1.0000
  C   C139      1.0  0.82352  0.64260  0.41768  1.0000
  C   C140      1.0  0.83236  0.60730  0.42650  1.0000
  C   C141      1.0  0.81387  0.58961  0.45383  1.0000
  C   C142      1.0  0.78649  0.60717  0.47242  1.0000
  C   C143      1.0  0.77760  0.64258  0.46361  1.0000
  C   C144      1.0  0.79616  0.66021  0.43624  1.0000
  O   O69       1.0  0.84166  0.65996  0.39086  1.0000
  O   O70       1.0  0.85919  0.59004  0.40830  1.0000
  H   H47       1.0  0.82045  0.56348  0.46031  1.0000
  O   O71       1.0  0.76840  0.58969  0.49926  1.0000
  O   O72       1.0  0.75074  0.66001  0.48175  1.0000
  H   H48       1.0  0.78961  0.68634  0.42972  1.0000
  Cu  Cu12      1.0  0.73266  0.62477  0.51746  1.0000
