data_image0
_chemical_formula_structural       FeC26H7O2H2O2HC4HO2HFeC26H7O2H2O2HC4HO2HFeC26H7O2H2O2HC4HO2HFeC26H7O2H2O2HC4HO2H
_chemical_formula_sum              "Fe4 C120 H48 O24"
_cell_length_a       26.604
_cell_length_b       26.6039
_cell_length_c       26.604
_cell_angle_alpha    90.0001
_cell_angle_beta     90.0001
_cell_angle_gamma    90

_space_group_name_H-M_alt    "P 1"
_space_group_IT_number       1

loop_
  _space_group_symop_operation_xyz
  'x, y, z'

loop_
  _atom_site_type_symbol
  _atom_site_label
  _atom_site_symmetry_multiplicity
  _atom_site_fract_x
  _atom_site_fract_y
  _atom_site_fract_z
  _atom_site_occupancy
  Fe  Fe1       1.0  0.12500  0.12500  0.12500  1.0000
  C   C1        1.0  0.14863  0.92227  0.35136  1.0000
  C   C2        1.0  0.10138  0.89864  0.32774  1.0000
  C   C3        1.0  0.07775  0.85137  0.35137  1.0000
  C   C4        1.0  0.10136  0.82774  0.39862  1.0000
  C   C5        1.0  0.14863  0.85137  0.42226  1.0000
  C   C6        1.0  0.17227  0.89864  0.39863  1.0000
  C   C7        1.0  0.07773  0.78048  0.42225  1.0000
  C   C8        1.0  0.03048  0.75685  0.39864  1.0000
  C   C9        1.0  0.00684  0.78048  0.35137  1.0000
  C   C10       1.0  0.03048  0.82774  0.32773  1.0000
  C   C11       1.0  0.17226  0.96953  0.32772  1.0000
  C   C12       1.0  0.14864  0.99317  0.28048  1.0000
  C   C13       1.0  0.10137  0.96953  0.25684  1.0000
  C   C14       1.0  0.07774  0.92227  0.28047  1.0000
  C   C15       1.0  0.21954  0.92227  0.42227  1.0000
  C   C16       1.0  0.24315  0.89864  0.46951  1.0000
  C   C17       1.0  0.21952  0.85137  0.49315  1.0000
  C   C18       1.0  0.17227  0.82774  0.46953  1.0000
  C   C19       1.0  0.24316  0.82774  0.54042  1.0000
  C   C20       1.0  0.29043  0.85137  0.56406  1.0000
  C   C21       1.0  0.31407  0.89864  0.54043  1.0000
  C   C22       1.0  0.29043  0.92227  0.49315  1.0000
  C   C23       1.0  0.95957  0.75685  0.32773  1.0000
  C   C24       1.0  0.93594  0.70958  0.35136  1.0000
  C   C25       1.0  0.95958  0.68595  0.39863  1.0000
  C   C26       1.0  0.00685  0.70958  0.42227  1.0000
  H   H1        1.0  0.09524  0.76299  0.45726  1.0000
  H   H2        1.0  0.01299  0.84524  0.29275  1.0000
  H   H3        1.0  0.20726  0.98703  0.34524  1.0000
  H   H4        1.0  0.04276  0.90478  0.26298  1.0000
  H   H5        1.0  0.23703  0.95726  0.40477  1.0000
  H   H6        1.0  0.15478  0.79276  0.48703  1.0000
  H   H7        1.0  0.22567  0.79276  0.55791  1.0000
  O   O1        1.0  0.31345  0.82836  0.61009  1.0000
  O   O2        1.0  0.36010  0.92166  0.56344  1.0000
  H   H8        1.0  0.30792  0.95726  0.47566  1.0000
  H   H9        1.0  0.94208  0.77434  0.29274  1.0000
  O   O3        1.0  0.88990  0.68657  0.32834  1.0000
  O   O4        1.0  0.93656  0.63992  0.42165  1.0000
  H   H10       1.0  0.02434  0.69209  0.45725  1.0000
  C   C27       1.0  0.07773  0.99317  0.20957  1.0000
  C   C28       1.0  0.10136  0.04043  0.18593  1.0000
  C   C29       1.0  0.14864  0.06406  0.20957  1.0000
  C   C30       1.0  0.17228  0.04043  0.25685  1.0000
  H   H11       1.0  0.04275  0.97567  0.19208  1.0000
  O   O5        1.0  0.07835  0.06345  0.13990  1.0000
  O   O6        1.0  0.17165  0.11010  0.18656  1.0000
  H   H12       1.0  0.20726  0.05792  0.27433  1.0000
  Fe  Fe2       1.0  0.37500  0.87500  0.62500  1.0000
  C   C31       1.0  0.35138  0.07773  0.85135  1.0000
  C   C32       1.0  0.39862  0.10136  0.82774  1.0000
  C   C33       1.0  0.42225  0.14863  0.85137  1.0000
  C   C34       1.0  0.39864  0.17226  0.89862  1.0000
  C   C35       1.0  0.35137  0.14863  0.92226  1.0000
  C   C36       1.0  0.32774  0.10136  0.89863  1.0000
  C   C37       1.0  0.42227  0.21952  0.92225  1.0000
  C   C38       1.0  0.46952  0.24315  0.89864  1.0000
  C   C39       1.0  0.49316  0.21952  0.85136  1.0000
  C   C40       1.0  0.46953  0.17226  0.82773  1.0000
  C   C41       1.0  0.32774  0.03047  0.82772  1.0000
  C   C42       1.0  0.35136  0.00683  0.78048  1.0000
  C   C43       1.0  0.39863  0.03047  0.75684  1.0000
  C   C44       1.0  0.42226  0.07773  0.78047  1.0000
  C   C45       1.0  0.28046  0.07773  0.92227  1.0000
  C   C46       1.0  0.25685  0.10136  0.96951  1.0000
  C   C47       1.0  0.28048  0.14863  0.99314  1.0000
  C   C48       1.0  0.32773  0.17226  0.96953  1.0000
  C   C49       1.0  0.25684  0.17226  0.04042  1.0000
  C   C50       1.0  0.20957  0.14863  0.06406  1.0000
  C   C51       1.0  0.18594  0.10136  0.04042  1.0000
  C   C52       1.0  0.20958  0.07773  0.99315  1.0000
  C   C53       1.0  0.54043  0.24315  0.82772  1.0000
  C   C54       1.0  0.56406  0.29042  0.85136  1.0000
  C   C55       1.0  0.54042  0.31405  0.89863  1.0000
  C   C56       1.0  0.49315  0.29042  0.92227  1.0000
  H   H13       1.0  0.40476  0.23701  0.95726  1.0000
  H   H14       1.0  0.48701  0.15476  0.79275  1.0000
  H   H15       1.0  0.29274  0.01297  0.84523  1.0000
  H   H16       1.0  0.45724  0.09522  0.76298  1.0000
  H   H17       1.0  0.26297  0.04274  0.90477  1.0000
  H   H18       1.0  0.34522  0.20724  0.98702  1.0000
  H   H19       1.0  0.27434  0.20724  0.05791  1.0000
  O   O7        1.0  0.18655  0.17164  0.11009  1.0000
  O   O8        1.0  0.13990  0.07834  0.06344  1.0000
  H   H20       1.0  0.19208  0.04274  0.97566  1.0000
  H   H21       1.0  0.55792  0.22566  0.79274  1.0000
  O   O9        1.0  0.61010  0.31343  0.82834  1.0000
  O   O10       1.0  0.56344  0.36008  0.92165  1.0000
  H   H22       1.0  0.47566  0.30791  0.95725  1.0000
  C   C57       1.0  0.42227  0.00683  0.70956  1.0000
  C   C58       1.0  0.39864  0.95957  0.68593  1.0000
  C   C59       1.0  0.35137  0.93594  0.70957  1.0000
  C   C60       1.0  0.32773  0.95957  0.75684  1.0000
  H   H23       1.0  0.45725  0.02433  0.69208  1.0000
  O   O11       1.0  0.42165  0.93655  0.63990  1.0000
  O   O12       1.0  0.32835  0.88990  0.68655  1.0000
  H   H24       1.0  0.29274  0.94208  0.77433  1.0000
  Fe  Fe3       1.0  0.62500  0.37500  0.87500  1.0000
  C   C61       1.0  0.89862  0.39865  0.17227  1.0000
  C   C62       1.0  0.85138  0.42226  0.14864  1.0000
  C   C63       1.0  0.82775  0.39863  0.10137  1.0000
  C   C64       1.0  0.85136  0.35138  0.07774  1.0000
  C   C65       1.0  0.89863  0.32774  0.10137  1.0000
  C   C66       1.0  0.92226  0.35137  0.14864  1.0000
  C   C67       1.0  0.82773  0.32775  0.03048  1.0000
  C   C68       1.0  0.78048  0.35136  0.00685  1.0000
  C   C69       1.0  0.75684  0.39864  0.03048  1.0000
  C   C70       1.0  0.78047  0.42227  0.07774  1.0000
  C   C71       1.0  0.92226  0.42228  0.21953  1.0000
  C   C72       1.0  0.89864  0.46952  0.24317  1.0000
  C   C73       1.0  0.85137  0.49316  0.21953  1.0000
  C   C74       1.0  0.82774  0.46953  0.17227  1.0000
  C   C75       1.0  0.96954  0.32773  0.17227  1.0000
  C   C76       1.0  0.99315  0.28049  0.14864  1.0000
  C   C77       1.0  0.96952  0.25686  0.10137  1.0000
  C   C78       1.0  0.92227  0.28047  0.07774  1.0000
  C   C79       1.0  0.99316  0.20958  0.07774  1.0000
  C   C80       1.0  0.04043  0.18594  0.10137  1.0000
  C   C81       1.0  0.06406  0.20958  0.14864  1.0000
  C   C82       1.0  0.04042  0.25685  0.17227  1.0000
  C   C83       1.0  0.70957  0.42228  0.00685  1.0000
  C   C84       1.0  0.68594  0.39864  0.95958  1.0000
  C   C85       1.0  0.70958  0.35137  0.93595  1.0000
  C   C86       1.0  0.75685  0.32773  0.95958  1.0000
  H   H25       1.0  0.84524  0.29274  0.01298  1.0000
  H   H26       1.0  0.76299  0.45725  0.09524  1.0000
  H   H27       1.0  0.95726  0.40476  0.23703  1.0000
  H   H28       1.0  0.79276  0.48702  0.15478  1.0000
  H   H29       1.0  0.98703  0.34523  0.20726  1.0000
  H   H30       1.0  0.90478  0.26298  0.04275  1.0000
  H   H31       1.0  0.97567  0.19209  0.04275  1.0000
  O   O13       1.0  0.06345  0.13991  0.07835  1.0000
  O   O14       1.0  0.11010  0.18656  0.17166  1.0000
  H   H32       1.0  0.05792  0.27434  0.20726  1.0000
  H   H33       1.0  0.69208  0.45726  0.02434  1.0000
  O   O15       1.0  0.63990  0.42166  0.93657  1.0000
  O   O16       1.0  0.68656  0.32835  0.88991  1.0000
  H   H34       1.0  0.77434  0.29275  0.94209  1.0000
  C   C87       1.0  0.82773  0.54044  0.24317  1.0000
  C   C88       1.0  0.85136  0.56407  0.29043  1.0000
  C   C89       1.0  0.89863  0.54043  0.31406  1.0000
  C   C90       1.0  0.92227  0.49316  0.29043  1.0000
  H   H35       1.0  0.79275  0.55792  0.22567  1.0000
  O   O17       1.0  0.82834  0.61010  0.31345  1.0000
  O   O18       1.0  0.92165  0.56345  0.36010  1.0000
  H   H36       1.0  0.95725  0.47567  0.30792  1.0000
  Fe  Fe4       1.0  0.87500  0.62500  0.37500  1.0000
  C   C91       1.0  0.60135  0.67227  0.60137  1.0000
  C   C92       1.0  0.57774  0.64864  0.64862  1.0000
  C   C93       1.0  0.60137  0.60137  0.67225  1.0000
  C   C94       1.0  0.64862  0.57774  0.64864  1.0000
  C   C95       1.0  0.67226  0.60137  0.60137  1.0000
  C   C96       1.0  0.64863  0.64864  0.57773  1.0000
  C   C97       1.0  0.67225  0.53048  0.67227  1.0000
  C   C98       1.0  0.64864  0.50685  0.71952  1.0000
  C   C99       1.0  0.60136  0.53048  0.74316  1.0000
  C   C100      1.0  0.57773  0.57774  0.71953  1.0000
  C   C101      1.0  0.57772  0.71953  0.57774  1.0000
  C   C102      1.0  0.53048  0.74317  0.60136  1.0000
  C   C103      1.0  0.50684  0.71953  0.64863  1.0000
  C   C104      1.0  0.53047  0.67227  0.67226  1.0000
  C   C105      1.0  0.67227  0.67227  0.53046  1.0000
  C   C106      1.0  0.71951  0.64864  0.50685  1.0000
  C   C107      1.0  0.74315  0.60137  0.53048  1.0000
  C   C108      1.0  0.71953  0.57774  0.57773  1.0000
  C   C109      1.0  0.79042  0.57774  0.50684  1.0000
  C   C110      1.0  0.81406  0.60137  0.45957  1.0000
  C   C111      1.0  0.79043  0.64864  0.43594  1.0000
  C   C112      1.0  0.74315  0.67227  0.45958  1.0000
  C   C113      1.0  0.57772  0.50685  0.79043  1.0000
  C   C114      1.0  0.60136  0.45958  0.81406  1.0000
  C   C115      1.0  0.64863  0.43595  0.79042  1.0000
  C   C116      1.0  0.67227  0.45958  0.74315  1.0000
  H   H37       1.0  0.70726  0.51299  0.65476  1.0000
  H   H38       1.0  0.54275  0.59524  0.73701  1.0000
  H   H39       1.0  0.59524  0.73703  0.54274  1.0000
  H   H40       1.0  0.51298  0.65478  0.70724  1.0000
  H   H41       1.0  0.65477  0.70726  0.51297  1.0000
  H   H42       1.0  0.73703  0.54276  0.59522  1.0000
  H   H43       1.0  0.80791  0.54276  0.52433  1.0000
  O   O19       1.0  0.86009  0.57836  0.43655  1.0000
  O   O20       1.0  0.81344  0.67166  0.38990  1.0000
  H   H44       1.0  0.72566  0.70726  0.44208  1.0000
  H   H45       1.0  0.54274  0.52434  0.80792  1.0000
  O   O21       1.0  0.57834  0.43657  0.86010  1.0000
  O   O22       1.0  0.67165  0.38992  0.81344  1.0000
  H   H46       1.0  0.70725  0.44209  0.72566  1.0000
  C   C117      1.0  0.45956  0.74317  0.67227  1.0000
  C   C118      1.0  0.43593  0.79043  0.64864  1.0000
  C   C119      1.0  0.45957  0.81406  0.60136  1.0000
  C   C120      1.0  0.50684  0.79043  0.57772  1.0000
  H   H47       1.0  0.44208  0.72567  0.70725  1.0000
  O   O23       1.0  0.38990  0.81345  0.67165  1.0000
  O   O24       1.0  0.43655  0.86010  0.57835  1.0000
  H   H48       1.0  0.52433  0.80792  0.54274  1.0000
