data_image0
_chemical_formula_structural       FeC18HO2H2O2H2O2HFeC18HO2H2O2H2O2HFeC18HO2H2O2H2O2HFeC18HO2H2O2H2O2H
_chemical_formula_sum              "Fe4 C72 H24 O24"
_cell_length_a       17.4423
_cell_length_b       17.4428
_cell_length_c       17.4423
_cell_angle_alpha    89.9993
_cell_angle_beta     90.001
_cell_angle_gamma    89.9995

_space_group_name_H-M_alt    "P 1"
_space_group_IT_number       1

loop_
  _space_group_symop_operation_xyz
  'x, y, z'

loop_
  _atom_site_type_symbol
  _atom_site_label
  _atom_site_symmetry_multiplicity
  _atom_site_fract_x
  _atom_site_fract_y
  _atom_site_fract_z
  _atom_site_occupancy
  Fe  Fe1       1.0  0.12500  0.12500  0.12500  1.0000
  C   C1        1.0  0.15777  0.94053  0.34223  1.0000
  C   C2        1.0  0.09223  0.90777  0.30946  1.0000
  C   C3        1.0  0.05946  0.84223  0.34223  1.0000
  C   C4        1.0  0.09223  0.80947  0.40777  1.0000
  C   C5        1.0  0.15777  0.84223  0.44054  1.0000
  C   C6        1.0  0.19053  0.90777  0.40777  1.0000
  C   C7        1.0  0.05947  0.74393  0.44053  1.0000
  C   C8        1.0  0.99393  0.71116  0.40777  1.0000
  C   C9        1.0  0.96116  0.74393  0.34223  1.0000
  C   C10       1.0  0.99393  0.80947  0.30946  1.0000
  C   C11       1.0  0.19053  0.00607  0.30946  1.0000
  C   C12       1.0  0.15776  0.03884  0.24393  1.0000
  C   C13       1.0  0.09223  0.00607  0.21116  1.0000
  C   C14       1.0  0.05946  0.94053  0.24393  1.0000
  C   C15       1.0  0.25607  0.94053  0.44054  1.0000
  C   C16       1.0  0.28884  0.90777  0.50607  1.0000
  C   C17       1.0  0.25607  0.84223  0.53884  1.0000
  C   C18       1.0  0.19054  0.80946  0.50607  1.0000
  H   H1        1.0  0.08404  0.71936  0.48969  1.0000
  O   O1        1.0  0.96444  0.65218  0.43726  1.0000
  O   O2        1.0  0.90218  0.71444  0.31274  1.0000
  H   H2        1.0  0.96935  0.83404  0.26031  1.0000
  H   H3        1.0  0.23968  0.03064  0.33404  1.0000
  O   O3        1.0  0.18725  0.09782  0.21444  1.0000
  O   O4        1.0  0.06274  0.03556  0.15218  1.0000
  H   H4        1.0  0.01031  0.91596  0.21935  1.0000
  H   H5        1.0  0.28065  0.98968  0.41596  1.0000
  O   O5        1.0  0.34782  0.93726  0.53557  1.0000
  O   O6        1.0  0.28556  0.81274  0.59782  1.0000
  H   H6        1.0  0.16596  0.76031  0.53065  1.0000
  Fe  Fe2       1.0  0.37500  0.87500  0.62500  1.0000
  C   C19       1.0  0.34223  0.05946  0.84223  1.0000
  C   C20       1.0  0.40777  0.09223  0.80946  1.0000
  C   C21       1.0  0.44053  0.15777  0.84223  1.0000
  C   C22       1.0  0.40777  0.19053  0.90777  1.0000
  C   C23       1.0  0.34223  0.15776  0.94053  1.0000
  C   C24       1.0  0.30947  0.09223  0.90777  1.0000
  C   C25       1.0  0.44053  0.25607  0.94053  1.0000
  C   C26       1.0  0.50607  0.28883  0.90776  1.0000
  C   C27       1.0  0.53884  0.25607  0.84223  1.0000
  C   C28       1.0  0.50607  0.19053  0.80946  1.0000
  C   C29       1.0  0.30947  0.99393  0.80946  1.0000
  C   C30       1.0  0.34223  0.96116  0.74393  1.0000
  C   C31       1.0  0.40777  0.99393  0.71116  1.0000
  C   C32       1.0  0.44054  0.05946  0.74393  1.0000
  C   C33       1.0  0.24393  0.05946  0.94054  1.0000
  C   C34       1.0  0.21116  0.09223  0.00607  1.0000
  C   C35       1.0  0.24393  0.15776  0.03884  1.0000
  C   C36       1.0  0.30946  0.19053  0.00607  1.0000
  H   H7        1.0  0.41596  0.28064  0.98968  1.0000
  O   O7        1.0  0.53556  0.34782  0.93725  1.0000
  O   O8        1.0  0.59782  0.28556  0.81274  1.0000
  H   H8        1.0  0.53065  0.16596  0.76031  1.0000
  H   H9        1.0  0.26032  0.96935  0.83404  1.0000
  O   O9        1.0  0.31274  0.90218  0.71444  1.0000
  O   O10       1.0  0.43726  0.96444  0.65218  1.0000
  H   H10       1.0  0.48969  0.08404  0.71935  1.0000
  H   H11       1.0  0.21936  0.01031  0.91596  1.0000
  O   O11       1.0  0.15218  0.06274  0.03556  1.0000
  O   O12       1.0  0.21444  0.18725  0.09782  1.0000
  H   H12       1.0  0.33404  0.23968  0.03064  1.0000
  Fe  Fe3       1.0  0.62500  0.37500  0.87500  1.0000
  C   C37       1.0  0.90777  0.40777  0.19054  1.0000
  C   C38       1.0  0.84223  0.44053  0.15777  1.0000
  C   C39       1.0  0.80947  0.40777  0.09223  1.0000
  C   C40       1.0  0.84223  0.34223  0.05947  1.0000
  C   C41       1.0  0.90777  0.30947  0.09224  1.0000
  C   C42       1.0  0.94054  0.34223  0.15777  1.0000
  C   C43       1.0  0.80946  0.30947  0.99393  1.0000
  C   C44       1.0  0.74393  0.34223  0.96116  1.0000
  C   C45       1.0  0.71116  0.40777  0.99393  1.0000
  C   C46       1.0  0.74393  0.44053  0.05947  1.0000
  C   C47       1.0  0.94054  0.44053  0.25607  1.0000
  C   C48       1.0  0.90777  0.50607  0.28884  1.0000
  C   C49       1.0  0.84224  0.53884  0.25607  1.0000
  C   C50       1.0  0.80947  0.50607  0.19054  1.0000
  C   C51       1.0  0.00607  0.30947  0.19054  1.0000
  C   C52       1.0  0.03884  0.24393  0.15777  1.0000
  C   C53       1.0  0.00607  0.21116  0.09224  1.0000
  C   C54       1.0  0.94054  0.24393  0.05947  1.0000
  H   H13       1.0  0.83404  0.26032  0.96936  1.0000
  O   O13       1.0  0.71444  0.31274  0.90218  1.0000
  O   O14       1.0  0.65218  0.43726  0.96444  1.0000
  H   H14       1.0  0.71935  0.48969  0.08404  1.0000
  H   H15       1.0  0.98969  0.41596  0.28065  1.0000
  O   O15       1.0  0.93726  0.53556  0.34782  1.0000
  O   O16       1.0  0.81274  0.59782  0.28556  1.0000
  H   H16       1.0  0.76031  0.53064  0.16596  1.0000
  H   H17       1.0  0.03065  0.33404  0.23969  1.0000
  O   O17       1.0  0.09782  0.21444  0.18727  1.0000
  O   O18       1.0  0.03556  0.15218  0.06275  1.0000
  H   H18       1.0  0.91596  0.21936  0.01032  1.0000
  Fe  Fe4       1.0  0.87500  0.62500  0.37500  1.0000
  C   C55       1.0  0.59223  0.69054  0.59223  1.0000
  C   C56       1.0  0.55946  0.65777  0.65777  1.0000
  C   C57       1.0  0.59223  0.59223  0.69053  1.0000
  C   C58       1.0  0.65777  0.55946  0.65777  1.0000
  C   C59       1.0  0.69053  0.59223  0.59223  1.0000
  C   C60       1.0  0.65777  0.65777  0.55946  1.0000
  C   C61       1.0  0.69053  0.49393  0.69053  1.0000
  C   C62       1.0  0.65777  0.46116  0.75607  1.0000
  C   C63       1.0  0.59223  0.49393  0.78884  1.0000
  C   C64       1.0  0.55946  0.55946  0.75607  1.0000
  C   C65       1.0  0.55946  0.75607  0.55946  1.0000
  C   C66       1.0  0.49393  0.78884  0.59223  1.0000
  C   C67       1.0  0.46116  0.75607  0.65777  1.0000
  C   C68       1.0  0.49393  0.69054  0.69053  1.0000
  C   C69       1.0  0.69053  0.69054  0.49393  1.0000
  C   C70       1.0  0.75607  0.65777  0.46116  1.0000
  C   C71       1.0  0.78884  0.59223  0.49393  1.0000
  C   C72       1.0  0.75607  0.55946  0.55946  1.0000
  H   H19       1.0  0.73968  0.46935  0.66596  1.0000
  O   O19       1.0  0.68726  0.40218  0.78556  1.0000
  O   O20       1.0  0.56274  0.46444  0.84782  1.0000
  H   H20       1.0  0.51031  0.58404  0.78064  1.0000
  H   H21       1.0  0.58404  0.78065  0.51031  1.0000
  O   O21       1.0  0.46444  0.84782  0.56274  1.0000
  O   O22       1.0  0.40218  0.78556  0.68726  1.0000
  H   H22       1.0  0.46935  0.66596  0.73969  1.0000
  H   H23       1.0  0.66596  0.73969  0.46935  1.0000
  O   O23       1.0  0.78556  0.68726  0.40218  1.0000
  O   O24       1.0  0.84782  0.56274  0.46444  1.0000
  H   H24       1.0  0.78064  0.51031  0.58404  1.0000
