data_image0
_chemical_formula_structural       Fe8C6HO2HO2C6HO2HO2C6HO2HO2C6HO2HO2C6HO2HO2C6HO2HO2C6HO2HO2C6HO2HO2C6HO2HO2C6HO2HO2C6HO2HO2C6HO2HO2
_chemical_formula_sum              "Fe8 C72 H24 O48"
_cell_length_a       21.1113
_cell_length_b       21.1113
_cell_length_c       21.1113
_cell_angle_alpha    90.0001
_cell_angle_beta     90.0001
_cell_angle_gamma    89.9999

_space_group_name_H-M_alt    "P 1"
_space_group_IT_number       1

loop_
  _space_group_symop_operation_xyz
  'x, y, z'

loop_
  _atom_site_type_symbol
  _atom_site_label
  _atom_site_symmetry_multiplicity
  _atom_site_fract_x
  _atom_site_fract_y
  _atom_site_fract_z
  _atom_site_occupancy
  Fe  Fe1       1.0  0.12500  0.12500  0.12500  1.0000
  Fe  Fe2       1.0  0.12500  0.87500  0.37500  1.0000
  Fe  Fe3       1.0  0.37500  0.87500  0.62500  1.0000
  Fe  Fe4       1.0  0.37500  0.12500  0.87500  1.0000
  Fe  Fe5       1.0  0.62500  0.37500  0.87500  1.0000
  Fe  Fe6       1.0  0.87500  0.37500  0.12500  1.0000
  Fe  Fe7       1.0  0.87500  0.62500  0.37500  1.0000
  Fe  Fe8       1.0  0.62500  0.62500  0.62500  1.0000
  C   C1        1.0  0.12500  0.04689  0.29689  1.0000
  C   C2        1.0  0.12500  0.06406  0.23284  1.0000
  C   C3        1.0  0.12500  0.01716  0.18594  1.0000
  C   C4        1.0  0.12500  0.95311  0.20311  1.0000
  C   C5        1.0  0.12500  0.93594  0.26716  1.0000
  C   C6        1.0  0.12500  0.98284  0.31406  1.0000
  H   H1        1.0  0.12500  0.08206  0.33206  1.0000
  O   O1        1.0  0.12500  0.12171  0.21739  1.0000
  O   O2        1.0  0.12500  0.03261  0.12829  1.0000
  H   H2        1.0  0.12500  0.91794  0.16794  1.0000
  O   O3        1.0  0.12500  0.87829  0.28261  1.0000
  O   O4        1.0  0.12500  0.96739  0.37171  1.0000
  C   C7        1.0  0.20311  0.87500  0.54689  1.0000
  C   C8        1.0  0.26716  0.87500  0.56406  1.0000
  C   C9        1.0  0.31406  0.87500  0.51716  1.0000
  C   C10       1.0  0.29689  0.87500  0.45311  1.0000
  C   C11       1.0  0.23284  0.87500  0.43594  1.0000
  C   C12       1.0  0.18594  0.87500  0.48284  1.0000
  H   H3        1.0  0.16794  0.87500  0.58206  1.0000
  O   O5        1.0  0.28261  0.87500  0.62171  1.0000
  O   O6        1.0  0.37171  0.87500  0.53261  1.0000
  H   H4        1.0  0.33206  0.87500  0.41794  1.0000
  O   O7        1.0  0.21739  0.87500  0.37829  1.0000
  O   O8        1.0  0.12829  0.87500  0.46739  1.0000
  C   C13       1.0  0.37500  0.95311  0.79689  1.0000
  C   C14       1.0  0.37500  0.01716  0.81406  1.0000
  C   C15       1.0  0.37500  0.06406  0.76716  1.0000
  C   C16       1.0  0.37500  0.04689  0.70311  1.0000
  C   C17       1.0  0.37500  0.98284  0.68594  1.0000
  C   C18       1.0  0.37500  0.93594  0.73284  1.0000
  H   H5        1.0  0.37500  0.91794  0.83206  1.0000
  O   O9        1.0  0.37500  0.03261  0.87171  1.0000
  O   O10       1.0  0.37500  0.12171  0.78261  1.0000
  H   H6        1.0  0.37500  0.08206  0.66794  1.0000
  O   O11       1.0  0.37500  0.96739  0.62829  1.0000
  O   O12       1.0  0.37500  0.87829  0.71739  1.0000
  C   C19       1.0  0.20311  0.12500  0.95311  1.0000
  C   C20       1.0  0.26716  0.12500  0.93594  1.0000
  C   C21       1.0  0.31406  0.12500  0.98284  1.0000
  C   C22       1.0  0.29689  0.12500  0.04689  1.0000
  C   C23       1.0  0.23284  0.12500  0.06406  1.0000
  C   C24       1.0  0.18594  0.12500  0.01716  1.0000
  H   H7        1.0  0.16794  0.12500  0.91794  1.0000
  O   O13       1.0  0.28261  0.12500  0.87829  1.0000
  O   O14       1.0  0.37171  0.12500  0.96739  1.0000
  H   H8        1.0  0.33206  0.12500  0.08206  1.0000
  O   O15       1.0  0.21739  0.12500  0.12171  1.0000
  O   O16       1.0  0.12829  0.12500  0.03261  1.0000
  C   C25       1.0  0.95311  0.20311  0.12500  1.0000
  C   C26       1.0  0.01716  0.18594  0.12500  1.0000
  C   C27       1.0  0.06406  0.23284  0.12500  1.0000
  C   C28       1.0  0.04689  0.29689  0.12500  1.0000
  C   C29       1.0  0.98284  0.31406  0.12500  1.0000
  C   C30       1.0  0.93594  0.26716  0.12500  1.0000
  H   H9        1.0  0.91794  0.16794  0.12500  1.0000
  O   O17       1.0  0.03261  0.12829  0.12500  1.0000
  O   O18       1.0  0.12171  0.21739  0.12500  1.0000
  H   H10       1.0  0.08206  0.33206  0.12500  1.0000
  O   O19       1.0  0.96739  0.37171  0.12500  1.0000
  O   O20       1.0  0.87829  0.28261  0.12500  1.0000
  C   C31       1.0  0.54689  0.20311  0.87500  1.0000
  C   C32       1.0  0.56406  0.26716  0.87500  1.0000
  C   C33       1.0  0.51716  0.31406  0.87500  1.0000
  C   C34       1.0  0.45311  0.29689  0.87500  1.0000
  C   C35       1.0  0.43594  0.23284  0.87500  1.0000
  C   C36       1.0  0.48284  0.18594  0.87500  1.0000
  H   H11       1.0  0.58206  0.16794  0.87500  1.0000
  O   O21       1.0  0.62171  0.28261  0.87500  1.0000
  O   O22       1.0  0.53261  0.37171  0.87500  1.0000
  H   H12       1.0  0.41794  0.33206  0.87500  1.0000
  O   O23       1.0  0.37829  0.21739  0.87500  1.0000
  O   O24       1.0  0.46739  0.12829  0.87500  1.0000
  C   C37       1.0  0.95311  0.79689  0.37500  1.0000
  C   C38       1.0  0.93594  0.73284  0.37500  1.0000
  C   C39       1.0  0.98284  0.68594  0.37500  1.0000
  C   C40       1.0  0.04689  0.70311  0.37500  1.0000
  C   C41       1.0  0.06406  0.76716  0.37500  1.0000
  C   C42       1.0  0.01716  0.81406  0.37500  1.0000
  H   H13       1.0  0.91794  0.83206  0.37500  1.0000
  O   O25       1.0  0.87829  0.71739  0.37500  1.0000
  O   O26       1.0  0.96739  0.62829  0.37500  1.0000
  H   H14       1.0  0.08206  0.66794  0.37500  1.0000
  O   O27       1.0  0.12171  0.78261  0.37500  1.0000
  O   O28       1.0  0.03261  0.87171  0.37500  1.0000
  C   C43       1.0  0.45311  0.70311  0.62500  1.0000
  C   C44       1.0  0.43594  0.76716  0.62500  1.0000
  C   C45       1.0  0.48284  0.81406  0.62500  1.0000
  C   C46       1.0  0.54689  0.79689  0.62500  1.0000
  C   C47       1.0  0.56406  0.73284  0.62500  1.0000
  C   C48       1.0  0.51716  0.68594  0.62500  1.0000
  H   H15       1.0  0.41794  0.66794  0.62500  1.0000
  O   O29       1.0  0.37829  0.78261  0.62500  1.0000
  O   O30       1.0  0.46739  0.87171  0.62500  1.0000
  H   H16       1.0  0.58206  0.83206  0.62500  1.0000
  O   O31       1.0  0.62171  0.71739  0.62500  1.0000
  O   O32       1.0  0.53261  0.62829  0.62500  1.0000
  C   C49       1.0  0.62500  0.45311  0.70311  1.0000
  C   C50       1.0  0.62500  0.43594  0.76716  1.0000
  C   C51       1.0  0.62500  0.48284  0.81406  1.0000
  C   C52       1.0  0.62500  0.54689  0.79689  1.0000
  C   C53       1.0  0.62500  0.56406  0.73284  1.0000
  C   C54       1.0  0.62500  0.51716  0.68594  1.0000
  H   H17       1.0  0.62500  0.41794  0.66794  1.0000
  O   O33       1.0  0.62500  0.37829  0.78261  1.0000
  O   O34       1.0  0.62500  0.46739  0.87171  1.0000
  H   H18       1.0  0.62500  0.58206  0.83206  1.0000
  O   O35       1.0  0.62500  0.62171  0.71739  1.0000
  O   O36       1.0  0.62500  0.53261  0.62829  1.0000
  C   C55       1.0  0.70311  0.37500  0.04689  1.0000
  C   C56       1.0  0.68594  0.37500  0.98284  1.0000
  C   C57       1.0  0.73284  0.37500  0.93594  1.0000
  C   C58       1.0  0.79689  0.37500  0.95311  1.0000
  C   C59       1.0  0.81406  0.37500  0.01716  1.0000
  C   C60       1.0  0.76716  0.37500  0.06406  1.0000
  H   H19       1.0  0.66794  0.37500  0.08206  1.0000
  O   O37       1.0  0.62829  0.37500  0.96739  1.0000
  O   O38       1.0  0.71739  0.37500  0.87829  1.0000
  H   H20       1.0  0.83206  0.37500  0.91794  1.0000
  O   O39       1.0  0.87171  0.37500  0.03261  1.0000
  O   O40       1.0  0.78261  0.37500  0.12171  1.0000
  C   C61       1.0  0.87500  0.45311  0.29689  1.0000
  C   C62       1.0  0.87500  0.51716  0.31406  1.0000
  C   C63       1.0  0.87500  0.56406  0.26716  1.0000
  C   C64       1.0  0.87500  0.54689  0.20311  1.0000
  C   C65       1.0  0.87500  0.48284  0.18594  1.0000
  C   C66       1.0  0.87500  0.43594  0.23284  1.0000
  H   H21       1.0  0.87500  0.41794  0.33206  1.0000
  O   O41       1.0  0.87500  0.53261  0.37171  1.0000
  O   O42       1.0  0.87500  0.62171  0.28261  1.0000
  H   H22       1.0  0.87500  0.58206  0.16794  1.0000
  O   O43       1.0  0.87500  0.46739  0.12829  1.0000
  O   O44       1.0  0.87500  0.37829  0.21739  1.0000
  C   C67       1.0  0.79689  0.62500  0.54689  1.0000
  C   C68       1.0  0.73284  0.62500  0.56406  1.0000
  C   C69       1.0  0.68594  0.62500  0.51716  1.0000
  C   C70       1.0  0.70311  0.62500  0.45311  1.0000
  C   C71       1.0  0.76716  0.62500  0.43594  1.0000
  C   C72       1.0  0.81406  0.62500  0.48284  1.0000
  H   H23       1.0  0.83206  0.62500  0.58206  1.0000
  O   O45       1.0  0.71739  0.62500  0.62171  1.0000
  O   O46       1.0  0.62829  0.62500  0.53261  1.0000
  H   H24       1.0  0.66794  0.62500  0.41794  1.0000
  O   O47       1.0  0.78261  0.62500  0.37829  1.0000
  O   O48       1.0  0.87171  0.62500  0.46739  1.0000
