data_image0
_chemical_formula_structural       FeC26H7O2H2O2HC4HO2HFeC26H7O2H2O2HC4HO2HFeC26H7O2H2O2HC4HO2HFeC26H7O2H2O2HC4HO2HC6O2HO2HCuC6O2HO2HCuC6O2HO2HCuC6O2HO2HCuC6O2HO2HCuC6O2HO2HCuC6O2HO2HCuC6O2HO2HCuC6O2HO2HCuC6O2HO2HCuC6O2HO2HCuC6O2HO2HCu
_chemical_formula_sum              "Fe4 C192 H72 O72 Cu12"
_cell_length_a       50.2623
_cell_length_b       50.2622
_cell_length_c       50.2623
_cell_angle_alpha    90.0001
_cell_angle_beta     90.0001
_cell_angle_gamma    89.9999

_space_group_name_H-M_alt    "P 1"
_space_group_IT_number       1

loop_
  _space_group_symop_operation_xyz
  'x, y, z'

loop_
  _atom_site_type_symbol
  _atom_site_label
  _atom_site_symmetry_multiplicity
  _atom_site_fract_x
  _atom_site_fract_y
  _atom_site_fract_z
  _atom_site_occupancy
  Fe  Fe1       1.0  0.12500  0.12500  0.12500  1.0000
  C   C1        1.0  0.13751  0.90002  0.36249  1.0000
  C   C2        1.0  0.11250  0.88751  0.34999  1.0000
  C   C3        1.0  0.09999  0.86249  0.36249  1.0000
  C   C4        1.0  0.11249  0.84999  0.38750  1.0000
  C   C5        1.0  0.13751  0.86249  0.40002  1.0000
  C   C6        1.0  0.15002  0.88751  0.38751  1.0000
  C   C7        1.0  0.09998  0.82497  0.40001  1.0000
  C   C8        1.0  0.07497  0.81246  0.38751  1.0000
  C   C9        1.0  0.06246  0.82497  0.36249  1.0000
  C   C10       1.0  0.07497  0.84999  0.34998  1.0000
  C   C11       1.0  0.15001  0.92504  0.34998  1.0000
  C   C12       1.0  0.13752  0.93754  0.32497  1.0000
  C   C13       1.0  0.11249  0.92504  0.31246  1.0000
  C   C14       1.0  0.09999  0.90002  0.32496  1.0000
  C   C15       1.0  0.17504  0.90002  0.40002  1.0000
  C   C16       1.0  0.18754  0.88751  0.42503  1.0000
  C   C17       1.0  0.17503  0.86249  0.43754  1.0000
  C   C18       1.0  0.15002  0.84999  0.42504  1.0000
  C   C19       1.0  0.18754  0.84999  0.46256  1.0000
  C   C20       1.0  0.21256  0.86249  0.47507  1.0000
  C   C21       1.0  0.22507  0.88751  0.46256  1.0000
  C   C22       1.0  0.21256  0.90002  0.43754  1.0000
  C   C23       1.0  0.03744  0.81246  0.34998  1.0000
  C   C24       1.0  0.02493  0.78744  0.36249  1.0000
  C   C25       1.0  0.03744  0.77494  0.38751  1.0000
  C   C26       1.0  0.06246  0.78744  0.40002  1.0000
  H   H1        1.0  0.10925  0.81571  0.41854  1.0000
  H   H2        1.0  0.06571  0.85925  0.33147  1.0000
  H   H3        1.0  0.16854  0.93430  0.35925  1.0000
  H   H4        1.0  0.08147  0.89076  0.31571  1.0000
  H   H5        1.0  0.18430  0.91854  0.39076  1.0000
  H   H6        1.0  0.14076  0.83147  0.43430  1.0000
  H   H7        1.0  0.17828  0.83147  0.47182  1.0000
  O   O1        1.0  0.22475  0.85031  0.49944  1.0000
  O   O2        1.0  0.24944  0.89969  0.47474  1.0000
  H   H8        1.0  0.22182  0.91854  0.42828  1.0000
  H   H9        1.0  0.02818  0.82172  0.33146  1.0000
  O   O3        1.0  0.00010  0.77526  0.35030  1.0000
  O   O4        1.0  0.02526  0.75057  0.39969  1.0000
  H   H10       1.0  0.07172  0.77819  0.41854  1.0000
  C   C27       1.0  0.09998  0.93755  0.28743  1.0000
  C   C28       1.0  0.11249  0.96256  0.27493  1.0000
  C   C29       1.0  0.13751  0.97507  0.28744  1.0000
  C   C30       1.0  0.15002  0.96256  0.31246  1.0000
  H   H11       1.0  0.08147  0.92829  0.27818  1.0000
  O   O5        1.0  0.10031  0.97475  0.25056  1.0000
  O   O6        1.0  0.14969  0.99990  0.27526  1.0000
  H   H12       1.0  0.16854  0.97182  0.32172  1.0000
  Fe  Fe2       1.0  0.37500  0.87500  0.62500  1.0000
  C   C31       1.0  0.36249  0.09998  0.86249  1.0000
  C   C32       1.0  0.38750  0.11249  0.84999  1.0000
  C   C33       1.0  0.40001  0.13751  0.86250  1.0000
  C   C34       1.0  0.38751  0.15001  0.88750  1.0000
  C   C35       1.0  0.36249  0.13751  0.90002  1.0000
  C   C36       1.0  0.34998  0.11249  0.88751  1.0000
  C   C37       1.0  0.40002  0.17503  0.90001  1.0000
  C   C38       1.0  0.42503  0.18754  0.88751  1.0000
  C   C39       1.0  0.43754  0.17503  0.86249  1.0000
  C   C40       1.0  0.42503  0.15001  0.84998  1.0000
  C   C41       1.0  0.34999  0.07496  0.84998  1.0000
  C   C42       1.0  0.36248  0.06246  0.82497  1.0000
  C   C43       1.0  0.38751  0.07496  0.81246  1.0000
  C   C44       1.0  0.40001  0.09998  0.82497  1.0000
  C   C45       1.0  0.32496  0.09998  0.90002  1.0000
  C   C46       1.0  0.31246  0.11249  0.92503  1.0000
  C   C47       1.0  0.32497  0.13751  0.93754  1.0000
  C   C48       1.0  0.34998  0.15001  0.92504  1.0000
  C   C49       1.0  0.31246  0.15001  0.96256  1.0000
  C   C50       1.0  0.28744  0.13751  0.97507  1.0000
  C   C51       1.0  0.27493  0.11249  0.96256  1.0000
  C   C52       1.0  0.28744  0.09998  0.93754  1.0000
  C   C53       1.0  0.46256  0.18754  0.84998  1.0000
  C   C54       1.0  0.47507  0.21256  0.86249  1.0000
  C   C55       1.0  0.46256  0.22506  0.88751  1.0000
  C   C56       1.0  0.43754  0.21256  0.90002  1.0000
  H   H13       1.0  0.39075  0.18429  0.91854  1.0000
  H   H14       1.0  0.43429  0.14075  0.83147  1.0000
  H   H15       1.0  0.33146  0.06570  0.85925  1.0000
  H   H16       1.0  0.41853  0.10924  0.81571  1.0000
  H   H17       1.0  0.31570  0.08146  0.89076  1.0000
  H   H18       1.0  0.35924  0.16853  0.93430  1.0000
  H   H19       1.0  0.32172  0.16853  0.97182  1.0000
  O   O7        1.0  0.27525  0.14969  0.99990  1.0000
  O   O8        1.0  0.25056  0.10031  0.97474  1.0000
  H   H20       1.0  0.27818  0.08146  0.92828  1.0000
  H   H21       1.0  0.47182  0.17828  0.83146  1.0000
  O   O9        1.0  0.49944  0.22474  0.85030  1.0000
  O   O10       1.0  0.47474  0.24943  0.89969  1.0000
  H   H22       1.0  0.42828  0.22182  0.91854  1.0000
  C   C57       1.0  0.40002  0.06246  0.78744  1.0000
  C   C58       1.0  0.38751  0.03744  0.77493  1.0000
  C   C59       1.0  0.36249  0.02493  0.78744  1.0000
  C   C60       1.0  0.34998  0.03744  0.81246  1.0000
  H   H23       1.0  0.41853  0.07171  0.77818  1.0000
  O   O11       1.0  0.39969  0.02525  0.75056  1.0000
  O   O12       1.0  0.35031  0.00010  0.77526  1.0000
  H   H24       1.0  0.33146  0.02818  0.82172  1.0000
  Fe  Fe3       1.0  0.62500  0.37500  0.87500  1.0000
  C   C61       1.0  0.88750  0.38752  0.15002  1.0000
  C   C62       1.0  0.86250  0.40001  0.13751  1.0000
  C   C63       1.0  0.84999  0.38751  0.11249  1.0000
  C   C64       1.0  0.86249  0.36250  0.09999  1.0000
  C   C65       1.0  0.88751  0.34999  0.11249  1.0000
  C   C66       1.0  0.90002  0.36249  0.13751  1.0000
  C   C67       1.0  0.84998  0.34999  0.07497  1.0000
  C   C68       1.0  0.82497  0.36249  0.06246  1.0000
  C   C69       1.0  0.81246  0.38751  0.07497  1.0000
  C   C70       1.0  0.82497  0.40002  0.09999  1.0000
  C   C71       1.0  0.90001  0.40002  0.17504  1.0000
  C   C72       1.0  0.88751  0.42503  0.18754  1.0000
  C   C73       1.0  0.86249  0.43754  0.17504  1.0000
  C   C74       1.0  0.84998  0.42504  0.15002  1.0000
  C   C75       1.0  0.92504  0.34998  0.15002  1.0000
  C   C76       1.0  0.93754  0.32497  0.13751  1.0000
  C   C77       1.0  0.92503  0.31247  0.11249  1.0000
  C   C78       1.0  0.90002  0.32496  0.09999  1.0000
  C   C79       1.0  0.93754  0.28744  0.09999  1.0000
  C   C80       1.0  0.96256  0.27493  0.11249  1.0000
  C   C81       1.0  0.97507  0.28744  0.13751  1.0000
  C   C82       1.0  0.96256  0.31246  0.15002  1.0000
  C   C83       1.0  0.78744  0.40002  0.06246  1.0000
  C   C84       1.0  0.77493  0.38751  0.03744  1.0000
  C   C85       1.0  0.78744  0.36249  0.02493  1.0000
  C   C86       1.0  0.81246  0.34998  0.03744  1.0000
  H   H25       1.0  0.85925  0.33146  0.06571  1.0000
  H   H26       1.0  0.81571  0.41853  0.10925  1.0000
  H   H27       1.0  0.91854  0.39075  0.18430  1.0000
  H   H28       1.0  0.83147  0.43429  0.14076  1.0000
  H   H29       1.0  0.93430  0.35924  0.16854  1.0000
  H   H30       1.0  0.89076  0.31571  0.08147  1.0000
  H   H31       1.0  0.92828  0.27818  0.08147  1.0000
  O   O13       1.0  0.97475  0.25057  0.10031  1.0000
  O   O14       1.0  0.99990  0.27526  0.14969  1.0000
  H   H32       1.0  0.97182  0.32172  0.16854  1.0000
  H   H33       1.0  0.77818  0.41854  0.07172  1.0000
  O   O15       1.0  0.75056  0.39970  0.02526  1.0000
  O   O16       1.0  0.77526  0.35031  0.00010  1.0000
  H   H34       1.0  0.82172  0.33147  0.02818  1.0000
  C   C87       1.0  0.84998  0.46257  0.18754  1.0000
  C   C88       1.0  0.86249  0.47507  0.21256  1.0000
  C   C89       1.0  0.88751  0.46256  0.22507  1.0000
  C   C90       1.0  0.90002  0.43754  0.21256  1.0000
  H   H35       1.0  0.83146  0.47182  0.17829  1.0000
  O   O17       1.0  0.85030  0.49944  0.22475  1.0000
  O   O18       1.0  0.89969  0.47474  0.24944  1.0000
  H   H36       1.0  0.91854  0.42828  0.22182  1.0000
  Fe  Fe4       1.0  0.87500  0.62500  0.37500  1.0000
  C   C91       1.0  0.61249  0.65002  0.61249  1.0000
  C   C92       1.0  0.59999  0.63751  0.63750  1.0000
  C   C93       1.0  0.61250  0.61249  0.65001  1.0000
  C   C94       1.0  0.63750  0.59999  0.63751  1.0000
  C   C95       1.0  0.65002  0.61249  0.61249  1.0000
  C   C96       1.0  0.63751  0.63751  0.59998  1.0000
  C   C97       1.0  0.65001  0.57497  0.65002  1.0000
  C   C98       1.0  0.63751  0.56246  0.67503  1.0000
  C   C99       1.0  0.61249  0.57497  0.68754  1.0000
  C   C100      1.0  0.59998  0.59999  0.67503  1.0000
  C   C101      1.0  0.59998  0.67504  0.59999  1.0000
  C   C102      1.0  0.57497  0.68755  0.61248  1.0000
  C   C103      1.0  0.56246  0.67504  0.63751  1.0000
  C   C104      1.0  0.57497  0.65002  0.65001  1.0000
  C   C105      1.0  0.65002  0.65002  0.57496  1.0000
  C   C106      1.0  0.67503  0.63751  0.56246  1.0000
  C   C107      1.0  0.68754  0.61249  0.57497  1.0000
  C   C108      1.0  0.67504  0.59999  0.59998  1.0000
  C   C109      1.0  0.71256  0.59999  0.56246  1.0000
  C   C110      1.0  0.72507  0.61250  0.53744  1.0000
  C   C111      1.0  0.71256  0.63751  0.52493  1.0000
  C   C112      1.0  0.68754  0.65002  0.53744  1.0000
  C   C113      1.0  0.59998  0.56246  0.71256  1.0000
  C   C114      1.0  0.61249  0.53744  0.72507  1.0000
  C   C115      1.0  0.63751  0.52494  0.71256  1.0000
  C   C116      1.0  0.65002  0.53744  0.68754  1.0000
  H   H37       1.0  0.66854  0.56571  0.64075  1.0000
  H   H38       1.0  0.58147  0.60925  0.68429  1.0000
  H   H39       1.0  0.60925  0.68430  0.58146  1.0000
  H   H40       1.0  0.56571  0.64076  0.66853  1.0000
  H   H41       1.0  0.64076  0.66854  0.56570  1.0000
  H   H42       1.0  0.68430  0.58147  0.60924  1.0000
  H   H43       1.0  0.72182  0.58147  0.57172  1.0000
  O   O19       1.0  0.74944  0.60031  0.52525  1.0000
  O   O20       1.0  0.72474  0.64970  0.50056  1.0000
  H   H44       1.0  0.67828  0.66854  0.52818  1.0000
  H   H45       1.0  0.58146  0.57172  0.72182  1.0000
  O   O21       1.0  0.60030  0.52526  0.74944  1.0000
  O   O22       1.0  0.64969  0.50057  0.72474  1.0000
  H   H46       1.0  0.66854  0.52818  0.67828  1.0000
  C   C117      1.0  0.53744  0.68755  0.65002  1.0000
  C   C118      1.0  0.52493  0.71256  0.63751  1.0000
  C   C119      1.0  0.53744  0.72507  0.61249  1.0000
  C   C120      1.0  0.56246  0.71256  0.59998  1.0000
  H   H47       1.0  0.52818  0.67829  0.66853  1.0000
  O   O23       1.0  0.50056  0.72475  0.64969  1.0000
  O   O24       1.0  0.52526  0.74944  0.60030  1.0000
  H   H48       1.0  0.57172  0.72182  0.58146  1.0000
  C   C121      1.0  0.11061  0.08290  0.15990  1.0000
  C   C122      1.0  0.13947  0.09013  0.16711  1.0000
  C   C123      1.0  0.15394  0.07501  0.18946  1.0000
  C   C124      1.0  0.13958  0.05262  0.20466  1.0000
  C   C125      1.0  0.11062  0.04536  0.19745  1.0000
  C   C126      1.0  0.09621  0.06053  0.17507  1.0000
  O   O25       1.0  0.09641  0.09774  0.13797  1.0000
  O   O26       1.0  0.15359  0.11207  0.15223  1.0000
  H   H49       1.0  0.17531  0.08039  0.19476  1.0000
  O   O27       1.0  0.15387  0.03783  0.22661  1.0000
  O   O28       1.0  0.09637  0.02339  0.21229  1.0000
  H   H50       1.0  0.07484  0.05518  0.16974  1.0000
  Cu  Cu1       1.0  0.12519  0.00860  0.24149  1.0000
  C   C127      1.0  0.34010  0.88939  0.58290  1.0000
  C   C128      1.0  0.33289  0.86053  0.59013  1.0000
  C   C129      1.0  0.31054  0.84606  0.57501  1.0000
  C   C130      1.0  0.29534  0.86042  0.55262  1.0000
  C   C131      1.0  0.30255  0.88938  0.54536  1.0000
  C   C132      1.0  0.32492  0.90379  0.56053  1.0000
  O   O29       1.0  0.36203  0.90359  0.59774  1.0000
  O   O30       1.0  0.34777  0.84641  0.61207  1.0000
  H   H51       1.0  0.30524  0.82469  0.58039  1.0000
  O   O31       1.0  0.27339  0.84613  0.53783  1.0000
  O   O32       1.0  0.28771  0.90363  0.52339  1.0000
  H   H52       1.0  0.33026  0.92516  0.55518  1.0000
  Cu  Cu2       1.0  0.25851  0.87481  0.50860  1.0000
  C   C133      1.0  0.38939  0.91710  0.65990  1.0000
  C   C134      1.0  0.36053  0.90987  0.66711  1.0000
  C   C135      1.0  0.34606  0.92499  0.68946  1.0000
  C   C136      1.0  0.36042  0.94738  0.70466  1.0000
  C   C137      1.0  0.38938  0.95464  0.69745  1.0000
  C   C138      1.0  0.40379  0.93947  0.67507  1.0000
  O   O33       1.0  0.40359  0.90226  0.63797  1.0000
  O   O34       1.0  0.34641  0.88793  0.65223  1.0000
  H   H53       1.0  0.32469  0.91961  0.69476  1.0000
  O   O35       1.0  0.34613  0.96217  0.72661  1.0000
  O   O36       1.0  0.40363  0.97661  0.71229  1.0000
  H   H54       1.0  0.42516  0.94482  0.66974  1.0000
  Cu  Cu3       1.0  0.37481  0.99140  0.74149  1.0000
  C   C139      1.0  0.15990  0.11061  0.08290  1.0000
  C   C140      1.0  0.16711  0.13947  0.09013  1.0000
  C   C141      1.0  0.18946  0.15394  0.07501  1.0000
  C   C142      1.0  0.20466  0.13958  0.05263  1.0000
  C   C143      1.0  0.19745  0.11062  0.04536  1.0000
  C   C144      1.0  0.17508  0.09621  0.06053  1.0000
  O   O37       1.0  0.13797  0.09641  0.09774  1.0000
  O   O38       1.0  0.15223  0.15359  0.11207  1.0000
  H   H55       1.0  0.19476  0.17531  0.08039  1.0000
  O   O39       1.0  0.22661  0.15387  0.03783  1.0000
  O   O40       1.0  0.21230  0.09637  0.02339  1.0000
  H   H56       1.0  0.16974  0.07484  0.05518  1.0000
  Cu  Cu4       1.0  0.24149  0.12519  0.00860  1.0000
  C   C145      1.0  0.08291  0.15990  0.11060  1.0000
  C   C146      1.0  0.09013  0.16711  0.13947  1.0000
  C   C147      1.0  0.07501  0.18946  0.15394  1.0000
  C   C148      1.0  0.05263  0.20466  0.13958  1.0000
  C   C149      1.0  0.04536  0.19745  0.11062  1.0000
  C   C150      1.0  0.06053  0.17508  0.09621  1.0000
  O   O41       1.0  0.09774  0.13797  0.09641  1.0000
  O   O42       1.0  0.11207  0.15223  0.15359  1.0000
  H   H57       1.0  0.08039  0.19476  0.17531  1.0000
  O   O43       1.0  0.03783  0.22661  0.15387  1.0000
  O   O44       1.0  0.02339  0.21229  0.09637  1.0000
  H   H58       1.0  0.05518  0.16974  0.07484  1.0000
  Cu  Cu5       1.0  0.00860  0.24149  0.12519  1.0000
  C   C151      1.0  0.59010  0.33290  0.86061  1.0000
  C   C152      1.0  0.58289  0.34013  0.88947  1.0000
  C   C153      1.0  0.56054  0.32501  0.90394  1.0000
  C   C154      1.0  0.54534  0.30263  0.88958  1.0000
  C   C155      1.0  0.55255  0.29536  0.86062  1.0000
  C   C156      1.0  0.57492  0.31053  0.84621  1.0000
  O   O45       1.0  0.61203  0.34774  0.84641  1.0000
  O   O46       1.0  0.59777  0.36207  0.90359  1.0000
  H   H59       1.0  0.55524  0.33039  0.92531  1.0000
  O   O47       1.0  0.52339  0.28783  0.90387  1.0000
  O   O48       1.0  0.53770  0.27339  0.84637  1.0000
  H   H60       1.0  0.58026  0.30518  0.82484  1.0000
  Cu  Cu6       1.0  0.50851  0.25860  0.87519  1.0000
  C   C157      1.0  0.90990  0.66710  0.36061  1.0000
  C   C158      1.0  0.91711  0.65987  0.38948  1.0000
  C   C159      1.0  0.93946  0.67499  0.40394  1.0000
  C   C160      1.0  0.95466  0.69738  0.38958  1.0000
  C   C161      1.0  0.94745  0.70465  0.36062  1.0000
  C   C162      1.0  0.92507  0.68947  0.34621  1.0000
  O   O49       1.0  0.88797  0.65226  0.34641  1.0000
  O   O50       1.0  0.90223  0.63793  0.40359  1.0000
  H   H61       1.0  0.94476  0.66961  0.42531  1.0000
  O   O51       1.0  0.97661  0.71217  0.40387  1.0000
  O   O52       1.0  0.96229  0.72661  0.34637  1.0000
  H   H62       1.0  0.91974  0.69482  0.32484  1.0000
  Cu  Cu7       1.0  0.99149  0.74140  0.37519  1.0000
  C   C163      1.0  0.41710  0.84010  0.61060  1.0000
  C   C164      1.0  0.40987  0.83289  0.63947  1.0000
  C   C165      1.0  0.42499  0.81054  0.65394  1.0000
  C   C166      1.0  0.44738  0.79534  0.63958  1.0000
  C   C167      1.0  0.45464  0.80254  0.61062  1.0000
  C   C168      1.0  0.43947  0.82492  0.59621  1.0000
  O   O53       1.0  0.40226  0.86203  0.59641  1.0000
  O   O54       1.0  0.38793  0.84777  0.65359  1.0000
  H   H63       1.0  0.41961  0.80524  0.67531  1.0000
  O   O55       1.0  0.46217  0.77339  0.65387  1.0000
  O   O56       1.0  0.47661  0.78770  0.59637  1.0000
  H   H64       1.0  0.44482  0.83026  0.57484  1.0000
  Cu  Cu8       1.0  0.49140  0.75851  0.62519  1.0000
  C   C169      1.0  0.63939  0.40990  0.83290  1.0000
  C   C170      1.0  0.61053  0.41711  0.84013  1.0000
  C   C171      1.0  0.59606  0.43946  0.82501  1.0000
  C   C172      1.0  0.61042  0.45466  0.80262  1.0000
  C   C173      1.0  0.63938  0.44745  0.79536  1.0000
  C   C174      1.0  0.65379  0.42507  0.81053  1.0000
  O   O57       1.0  0.65359  0.38797  0.84774  1.0000
  O   O58       1.0  0.59641  0.40223  0.86207  1.0000
  H   H65       1.0  0.57469  0.44476  0.83039  1.0000
  O   O59       1.0  0.59613  0.47661  0.78783  1.0000
  O   O60       1.0  0.65363  0.46229  0.77339  1.0000
  H   H66       1.0  0.67516  0.41974  0.80518  1.0000
  Cu  Cu9       1.0  0.62481  0.49149  0.75860  1.0000
  C   C175      1.0  0.66710  0.36061  0.90990  1.0000
  C   C176      1.0  0.65987  0.38947  0.91711  1.0000
  C   C177      1.0  0.67499  0.40394  0.93946  1.0000
  C   C178      1.0  0.69737  0.38958  0.95466  1.0000
  C   C179      1.0  0.70464  0.36062  0.94745  1.0000
  C   C180      1.0  0.68947  0.34621  0.92507  1.0000
  O   O61       1.0  0.65226  0.34641  0.88797  1.0000
  O   O62       1.0  0.63793  0.40359  0.90223  1.0000
  H   H67       1.0  0.66961  0.42531  0.94476  1.0000
  O   O63       1.0  0.71217  0.40387  0.97661  1.0000
  O   O64       1.0  0.72661  0.34637  0.96229  1.0000
  H   H68       1.0  0.69482  0.32484  0.91974  1.0000
  Cu  Cu10      1.0  0.74140  0.37519  0.99149  1.0000
  C   C181      1.0  0.86061  0.59010  0.33291  1.0000
  C   C182      1.0  0.88947  0.58289  0.34013  1.0000
  C   C183      1.0  0.90394  0.56054  0.32501  1.0000
  C   C184      1.0  0.88958  0.54534  0.30263  1.0000
  C   C185      1.0  0.86062  0.55255  0.29536  1.0000
  C   C186      1.0  0.84621  0.57493  0.31053  1.0000
  O   O65       1.0  0.84641  0.61203  0.34774  1.0000
  O   O66       1.0  0.90359  0.59777  0.36207  1.0000
  H   H69       1.0  0.92531  0.55524  0.33039  1.0000
  O   O67       1.0  0.90387  0.52339  0.28783  1.0000
  O   O68       1.0  0.84637  0.53771  0.27339  1.0000
  H   H70       1.0  0.82484  0.58026  0.30518  1.0000
  Cu  Cu11      1.0  0.87519  0.50851  0.25860  1.0000
  C   C187      1.0  0.83290  0.63939  0.40990  1.0000
  C   C188      1.0  0.84013  0.61053  0.41711  1.0000
  C   C189      1.0  0.82501  0.59606  0.43946  1.0000
  C   C190      1.0  0.80263  0.61042  0.45466  1.0000
  C   C191      1.0  0.79536  0.63938  0.44746  1.0000
  C   C192      1.0  0.81053  0.65379  0.42508  1.0000
  O   O69       1.0  0.84774  0.65359  0.38797  1.0000
  O   O70       1.0  0.86207  0.59641  0.40223  1.0000
  H   H71       1.0  0.83039  0.57469  0.44476  1.0000
  O   O71       1.0  0.78783  0.59613  0.47661  1.0000
  O   O72       1.0  0.77339  0.65363  0.46230  1.0000
  H   H72       1.0  0.80518  0.67516  0.41974  1.0000
  Cu  Cu12      1.0  0.75860  0.62481  0.49149  1.0000
