data_image0
_chemical_formula_structural       Fe12C6HO2HO2C6HO2HO2C6HO2HO2C6HO2HO2C6HO2HO2C6HO2HO2C6HO2HO2C6HO2HO2C6HO2HO2C6HO2HO2C6HO2HO2C6HO2HO2C6HO2HO2C6HO2HO2C6HO2HO2C6HO2HO2C6HO2HO2C6HO2HO2
_chemical_formula_sum              "Fe12 C108 H36 O72"
_cell_length_a       18.4152
_cell_length_b       18.4161
_cell_length_c       46.471
_cell_angle_alpha    90
_cell_angle_beta     90
_cell_angle_gamma    120.002

_space_group_name_H-M_alt    "P 1"
_space_group_IT_number       1

loop_
  _space_group_symop_operation_xyz
  'x, y, z'

loop_
  _atom_site_type_symbol
  _atom_site_label
  _atom_site_symmetry_multiplicity
  _atom_site_fract_x
  _atom_site_fract_y
  _atom_site_fract_z
  _atom_site_occupancy
  Fe  Fe1       1.0  0.50000  0.00010  0.47187  1.0000
  Fe  Fe2       1.0  0.50000  0.50000  0.13854  1.0000
  Fe  Fe3       1.0  0.00010  0.50000  0.80520  1.0000
  Fe  Fe4       1.0  0.00010  0.50000  0.96417  1.0000
  Fe  Fe5       1.0  0.50000  0.00010  0.63084  1.0000
  Fe  Fe6       1.0  0.50000  0.50000  0.29750  1.0000
  Fe  Fe7       1.0  0.61736  0.23475  0.05135  1.0000
  Fe  Fe8       1.0  0.38263  0.61738  0.71802  1.0000
  Fe  Fe9       1.0  0.76524  0.38262  0.38469  1.0000
  Fe  Fe10      1.0  0.38264  0.76525  0.05135  1.0000
  Fe  Fe11      1.0  0.61737  0.38262  0.71802  1.0000
  Fe  Fe12      1.0  0.23476  0.61738  0.38469  1.0000
  C   C1        1.0  0.49194  0.99990  0.08131  1.0000
  C   C2        1.0  0.53398  0.07602  0.06633  1.0000
  C   C3        1.0  0.54204  0.07602  0.03637  1.0000
  C   C4        1.0  0.50806  0.00010  0.02140  1.0000
  C   C5        1.0  0.46602  0.92398  0.03637  1.0000
  C   C6        1.0  0.45797  0.92398  0.06633  1.0000
  H   H1        1.0  0.48590  0.99990  0.10378  1.0000
  O   O1        1.0  0.56456  0.14444  0.07981  1.0000
  O   O2        1.0  0.57987  0.14444  0.02289  1.0000
  H   H2        1.0  0.51410  0.00010  0.99893  1.0000
  O   O3        1.0  0.43544  0.85556  0.02289  1.0000
  O   O4        1.0  0.42013  0.85556  0.07981  1.0000
  C   C7        1.0  0.50806  0.50806  0.68806  1.0000
  C   C8        1.0  0.46602  0.54204  0.70304  1.0000
  C   C9        1.0  0.45796  0.53398  0.73300  1.0000
  C   C10       1.0  0.49194  0.49194  0.74797  1.0000
  C   C11       1.0  0.53398  0.45796  0.73300  1.0000
  C   C12       1.0  0.54204  0.46602  0.70304  1.0000
  H   H3        1.0  0.51410  0.51410  0.66559  1.0000
  O   O5        1.0  0.43544  0.57988  0.68956  1.0000
  O   O6        1.0  0.42013  0.56457  0.74648  1.0000
  H   H4        1.0  0.48590  0.48590  0.77044  1.0000
  O   O7        1.0  0.56456  0.42012  0.74648  1.0000
  O   O8        1.0  0.57987  0.43543  0.68956  1.0000
  C   C13       1.0  0.99990  0.50806  0.41464  1.0000
  C   C14       1.0  0.07603  0.54204  0.39966  1.0000
  C   C15       1.0  0.07603  0.53399  0.36971  1.0000
  C   C16       1.0  0.00010  0.49194  0.35473  1.0000
  C   C17       1.0  0.92397  0.45796  0.36971  1.0000
  C   C18       1.0  0.92397  0.46601  0.39966  1.0000
  H   H5        1.0  0.99990  0.51410  0.43711  1.0000
  O   O9        1.0  0.14445  0.57988  0.41314  1.0000
  O   O10       1.0  0.14445  0.56458  0.35623  1.0000
  H   H6        1.0  0.00010  0.48590  0.33226  1.0000
  O   O11       1.0  0.85555  0.42012  0.35623  1.0000
  O   O12       1.0  0.85555  0.43542  0.41314  1.0000
  C   C19       1.0  0.42397  0.00010  0.55135  1.0000
  C   C20       1.0  0.46199  0.00010  0.57744  1.0000
  C   C21       1.0  0.53801  0.00010  0.57744  1.0000
  C   C22       1.0  0.57603  0.00010  0.55135  1.0000
  C   C23       1.0  0.53801  0.00010  0.52526  1.0000
  C   C24       1.0  0.46199  0.00010  0.52526  1.0000
  H   H7        1.0  0.36695  0.00010  0.55135  1.0000
  O   O13       1.0  0.42777  0.00010  0.60092  1.0000
  O   O14       1.0  0.57223  0.00010  0.60092  1.0000
  H   H8        1.0  0.63305  0.00010  0.55135  1.0000
  O   O15       1.0  0.57223  0.00010  0.50178  1.0000
  O   O16       1.0  0.42777  0.00010  0.50178  1.0000
  C   C25       1.0  0.57603  0.57602  0.21802  1.0000
  C   C26       1.0  0.53801  0.53801  0.19193  1.0000
  C   C27       1.0  0.46199  0.46199  0.19193  1.0000
  C   C28       1.0  0.42397  0.42398  0.21802  1.0000
  C   C29       1.0  0.46199  0.46199  0.24411  1.0000
  C   C30       1.0  0.53801  0.53801  0.24411  1.0000
  H   H9        1.0  0.63305  0.63304  0.21802  1.0000
  O   O17       1.0  0.57223  0.57222  0.16845  1.0000
  O   O18       1.0  0.42777  0.42778  0.16845  1.0000
  H   H10       1.0  0.36695  0.36696  0.21802  1.0000
  O   O19       1.0  0.42777  0.42778  0.26759  1.0000
  O   O20       1.0  0.57223  0.57222  0.26759  1.0000
  C   C31       1.0  0.00010  0.57602  0.88469  1.0000
  C   C32       1.0  0.00010  0.53801  0.91078  1.0000
  C   C33       1.0  0.00010  0.46199  0.91078  1.0000
  C   C34       1.0  0.00010  0.42398  0.88469  1.0000
  C   C35       1.0  0.00010  0.46199  0.85860  1.0000
  C   C36       1.0  0.00010  0.53801  0.85860  1.0000
  H   H11       1.0  0.00010  0.63304  0.88469  1.0000
  O   O21       1.0  0.00010  0.57222  0.93426  1.0000
  O   O22       1.0  0.00010  0.42778  0.93426  1.0000
  H   H12       1.0  0.00010  0.36696  0.88469  1.0000
  O   O23       1.0  0.00010  0.42778  0.83512  1.0000
  O   O24       1.0  0.00010  0.57222  0.83512  1.0000
  C   C37       1.0  0.33044  0.85135  0.41514  1.0000
  C   C38       1.0  0.30272  0.76766  0.40797  1.0000
  C   C39       1.0  0.33581  0.72366  0.42222  1.0000
  C   C40       1.0  0.39662  0.76335  0.44363  1.0000
  C   C41       1.0  0.42434  0.84704  0.45080  1.0000
  C   C42       1.0  0.39125  0.89104  0.43655  1.0000
  H   H13       1.0  0.30562  0.88435  0.40446  1.0000
  O   O25       1.0  0.24799  0.73194  0.38870  1.0000
  O   O26       1.0  0.31086  0.64834  0.41577  1.0000
  H   H14       1.0  0.42144  0.73035  0.45432  1.0000
  O   O27       1.0  0.47907  0.88276  0.47007  1.0000
  O   O28       1.0  0.41620  0.96635  0.44301  1.0000
  C   C43       1.0  0.47918  0.33044  0.08181  1.0000
  C   C44       1.0  0.53515  0.30271  0.07464  1.0000
  C   C45       1.0  0.61224  0.33580  0.08889  1.0000
  C   C46       1.0  0.63337  0.39661  0.11030  1.0000
  C   C47       1.0  0.57740  0.42433  0.11747  1.0000
  C   C48       1.0  0.50031  0.39125  0.10322  1.0000
  H   H15       1.0  0.42136  0.30562  0.07112  1.0000
  O   O29       1.0  0.51613  0.24798  0.05537  1.0000
  O   O30       1.0  0.66261  0.31085  0.08244  1.0000
  H   H16       1.0  0.69119  0.42143  0.12098  1.0000
  O   O31       1.0  0.59642  0.47906  0.13674  1.0000
  O   O32       1.0  0.44994  0.41620  0.10967  1.0000
  C   C49       1.0  0.15227  0.47530  0.75109  1.0000
  C   C50       1.0  0.23420  0.53321  0.74262  1.0000
  C   C51       1.0  0.27469  0.61420  0.75424  1.0000
  C   C52       1.0  0.23324  0.63727  0.77434  1.0000
  C   C53       1.0  0.15131  0.57935  0.78282  1.0000
  C   C54       1.0  0.11082  0.49837  0.77120  1.0000
  H   H17       1.0  0.12191  0.41456  0.74238  1.0000
  O   O33       1.0  0.27151  0.51245  0.72453  1.0000
  O   O34       1.0  0.34843  0.66632  0.74661  1.0000
  H   H18       1.0  0.26361  0.69801  0.78306  1.0000
  O   O35       1.0  0.11401  0.60012  0.80091  1.0000
  O   O36       1.0  0.03708  0.44624  0.77883  1.0000
  C   C55       1.0  0.59596  0.23323  0.44101  1.0000
  C   C56       1.0  0.66048  0.27468  0.42091  1.0000
  C   C57       1.0  0.70099  0.23420  0.40928  1.0000
  C   C58       1.0  0.67697  0.15227  0.41776  1.0000
  C   C59       1.0  0.61246  0.11082  0.43787  1.0000
  C   C60       1.0  0.57195  0.15130  0.44949  1.0000
  H   H19       1.0  0.56559  0.26359  0.44973  1.0000
  O   O37       1.0  0.68209  0.34841  0.41328  1.0000
  O   O38       1.0  0.75905  0.27150  0.39119  1.0000
  H   H20       1.0  0.70735  0.12191  0.40904  1.0000
  O   O39       1.0  0.59085  0.03709  0.44550  1.0000
  O   O40       1.0  0.51389  0.11400  0.46758  1.0000
  C   C61       1.0  0.36274  0.59597  0.10768  1.0000
  C   C62       1.0  0.38581  0.66049  0.08757  1.0000
  C   C63       1.0  0.46680  0.70100  0.07595  1.0000
  C   C64       1.0  0.52472  0.67698  0.08443  1.0000
  C   C65       1.0  0.50164  0.61246  0.10453  1.0000
  C   C66       1.0  0.42065  0.57196  0.11615  1.0000
  H   H21       1.0  0.30199  0.56559  0.11639  1.0000
  O   O41       1.0  0.33369  0.68211  0.07994  1.0000
  O   O42       1.0  0.48757  0.75906  0.05786  1.0000
  H   H22       1.0  0.58546  0.70736  0.07571  1.0000
  O   O43       1.0  0.55377  0.59085  0.11216  1.0000
  O   O44       1.0  0.39988  0.51389  0.13424  1.0000
  C   C67       1.0  0.84773  0.52470  0.75109  1.0000
  C   C68       1.0  0.76580  0.46679  0.74262  1.0000
  C   C69       1.0  0.72531  0.38580  0.75424  1.0000
  C   C70       1.0  0.76676  0.36273  0.77434  1.0000
  C   C71       1.0  0.84869  0.42065  0.78282  1.0000
  C   C72       1.0  0.88918  0.50163  0.77120  1.0000
  H   H23       1.0  0.87809  0.58544  0.74238  1.0000
  O   O45       1.0  0.72849  0.48755  0.72453  1.0000
  O   O46       1.0  0.65157  0.33368  0.74661  1.0000
  H   H24       1.0  0.73639  0.30199  0.78306  1.0000
  O   O47       1.0  0.88599  0.39988  0.80091  1.0000
  O   O48       1.0  0.96292  0.55376  0.77883  1.0000
  C   C73       1.0  0.15228  0.67698  0.01828  1.0000
  C   C74       1.0  0.23421  0.70099  0.02676  1.0000
  C   C75       1.0  0.27470  0.66049  0.01513  1.0000
  C   C76       1.0  0.23325  0.59597  0.99503  1.0000
  C   C77       1.0  0.15131  0.57196  0.98655  1.0000
  C   C78       1.0  0.11083  0.61246  0.99818  1.0000
  H   H25       1.0  0.12191  0.70735  0.02700  1.0000
  O   O49       1.0  0.27152  0.75906  0.04485  1.0000
  O   O50       1.0  0.34844  0.68211  0.02276  1.0000
  H   H26       1.0  0.26361  0.56560  0.98631  1.0000
  O   O51       1.0  0.11401  0.51389  0.96846  1.0000
  O   O52       1.0  0.03709  0.59084  0.99055  1.0000
  C   C79       1.0  0.47918  0.14885  0.68757  1.0000
  C   C80       1.0  0.53515  0.23254  0.69473  1.0000
  C   C81       1.0  0.61225  0.27654  0.68049  1.0000
  C   C82       1.0  0.63337  0.23686  0.65907  1.0000
  C   C83       1.0  0.57740  0.15317  0.65191  1.0000
  C   C84       1.0  0.50031  0.10916  0.66615  1.0000
  H   H27       1.0  0.42136  0.11584  0.69825  1.0000
  O   O53       1.0  0.51614  0.26825  0.71400  1.0000
  O   O54       1.0  0.66262  0.35186  0.68693  1.0000
  H   H28       1.0  0.69119  0.26986  0.64839  1.0000
  O   O55       1.0  0.59642  0.11745  0.63263  1.0000
  O   O56       1.0  0.44994  0.03384  0.65970  1.0000
  C   C85       1.0  0.40404  0.63727  0.32836  1.0000
  C   C86       1.0  0.33952  0.61420  0.34846  1.0000
  C   C87       1.0  0.29901  0.53322  0.36009  1.0000
  C   C88       1.0  0.32302  0.47530  0.35161  1.0000
  C   C89       1.0  0.38754  0.49837  0.33151  1.0000
  C   C90       1.0  0.42805  0.57935  0.31988  1.0000
  H   H29       1.0  0.43442  0.69801  0.31964  1.0000
  O   O57       1.0  0.31791  0.66633  0.35609  1.0000
  O   O58       1.0  0.24095  0.51246  0.37818  1.0000
  H   H30       1.0  0.29264  0.41456  0.36033  1.0000
  O   O59       1.0  0.40915  0.44624  0.32388  1.0000
  O   O60       1.0  0.48612  0.60012  0.30179  1.0000
  C   C91       1.0  0.85134  0.33044  0.02090  1.0000
  C   C92       1.0  0.76765  0.30271  0.02807  1.0000
  C   C93       1.0  0.72365  0.33580  0.01382  1.0000
  C   C94       1.0  0.76334  0.39661  0.99241  1.0000
  C   C95       1.0  0.84703  0.42434  0.98524  1.0000
  C   C96       1.0  0.89103  0.39125  0.99990  1.0000
  H   H31       1.0  0.88434  0.30562  0.03159  1.0000
  O   O61       1.0  0.73193  0.24798  0.04734  1.0000
  O   O62       1.0  0.64832  0.31085  0.02027  1.0000
  H   H32       1.0  0.73034  0.42143  0.98172  1.0000
  O   O63       1.0  0.88275  0.47907  0.96597  1.0000
  O   O64       1.0  0.96636  0.41620  0.99304  1.0000
  C   C97       1.0  0.36663  0.76334  0.65907  1.0000
  C   C98       1.0  0.38776  0.72366  0.68049  1.0000
  C   C99       1.0  0.46485  0.76766  0.69473  1.0000
  C   C100      1.0  0.52082  0.85135  0.68757  1.0000
  C   C101      1.0  0.49969  0.89104  0.66615  1.0000
  C   C102      1.0  0.42260  0.84703  0.65191  1.0000
  H   H33       1.0  0.30881  0.73034  0.64839  1.0000
  O   O65       1.0  0.33738  0.64834  0.68693  1.0000
  O   O66       1.0  0.48386  0.73195  0.71400  1.0000
  H   H34       1.0  0.57864  0.88436  0.69825  1.0000
  O   O67       1.0  0.55006  0.96636  0.65970  1.0000
  O   O68       1.0  0.40358  0.88275  0.63263  1.0000
  C   C103      1.0  0.67698  0.52470  0.35161  1.0000
  C   C104      1.0  0.70099  0.46678  0.36009  1.0000
  C   C105      1.0  0.66048  0.38580  0.34846  1.0000
  C   C106      1.0  0.59596  0.36273  0.32836  1.0000
  C   C107      1.0  0.57195  0.42065  0.31988  1.0000
  C   C108      1.0  0.61246  0.50163  0.33151  1.0000
  H   H35       1.0  0.70736  0.58544  0.36033  1.0000
  O   O69       1.0  0.75905  0.48754  0.37818  1.0000
  O   O70       1.0  0.68209  0.33367  0.35609  1.0000
  H   H36       1.0  0.56558  0.30199  0.31964  1.0000
  O   O71       1.0  0.51388  0.39988  0.30179  1.0000
  O   O72       1.0  0.59085  0.55376  0.32388  1.0000
