data_image0
_chemical_formula_structural       C18HO2H2O2H2O2HC18HO2H2O2H2O2HC18HO2H2O2H2O2HC18HO2H2O2H2O2HC7NCNCNC3NCNC11NCNC7NH8C16HO2H2O2H2O2H2O2HNiC7NCNCNC3NCNC11NCNC7NH8C16HO2H2O2H2O2H2O2HNiZn4Cu6
_chemical_formula_sum              "C168 H56 O40 N16 Ni2 Zn4 Cu6"
_cell_length_a       21.2251
_cell_length_b       86.9102
_cell_length_c       25.0712
_cell_angle_alpha    89.6535
_cell_angle_beta     90
_cell_angle_gamma    90

_space_group_name_H-M_alt    "P 1"
_space_group_IT_number       1

loop_
  _space_group_symop_operation_xyz
  'x, y, z'

loop_
  _atom_site_type_symbol
  _atom_site_label
  _atom_site_symmetry_multiplicity
  _atom_site_fract_x
  _atom_site_fract_y
  _atom_site_fract_z
  _atom_site_occupancy
  C   C1        1.0  0.96712  0.31439  0.02521  1.0000
  C   C2        1.0  0.03308  0.31439  0.02521  1.0000
  C   C3        1.0  0.06606  0.30044  0.02476  1.0000
  C   C4        1.0  0.03308  0.28649  0.02430  1.0000
  C   C5        1.0  0.96712  0.28649  0.02430  1.0000
  C   C6        1.0  0.93414  0.30044  0.02476  1.0000
  C   C7        1.0  0.06606  0.27254  0.02384  1.0000
  C   C8        1.0  0.13202  0.27254  0.02384  1.0000
  C   C9        1.0  0.16500  0.28649  0.02430  1.0000
  C   C10       1.0  0.13202  0.30044  0.02476  1.0000
  C   C11       1.0  0.93414  0.32833  0.02567  1.0000
  C   C12       1.0  0.96712  0.34228  0.02613  1.0000
  C   C13       1.0  0.03308  0.34228  0.02613  1.0000
  C   C14       1.0  0.06606  0.32833  0.02567  1.0000
  C   C15       1.0  0.86818  0.30044  0.02476  1.0000
  C   C16       1.0  0.83520  0.28649  0.02430  1.0000
  C   C17       1.0  0.86818  0.27254  0.02384  1.0000
  C   C18       1.0  0.93414  0.27254  0.02384  1.0000
  H   H1        1.0  0.04132  0.26208  0.02349  1.0000
  O   O1        1.0  0.16170  0.25998  0.02343  1.0000
  O   O2        1.0  0.22436  0.28649  0.02430  1.0000
  H   H2        1.0  0.15675  0.31090  0.02510  1.0000
  H   H3        1.0  0.88467  0.32833  0.02567  1.0000
  O   O3        1.0  0.93744  0.35484  0.02654  1.0000
  O   O4        1.0  0.06276  0.35484  0.02654  1.0000
  H   H4        1.0  0.11553  0.32833  0.02567  1.0000
  H   H5        1.0  0.84345  0.31090  0.02510  1.0000
  O   O5        1.0  0.77584  0.28649  0.02430  1.0000
  O   O6        1.0  0.83850  0.25998  0.02343  1.0000
  H   H6        1.0  0.95888  0.26208  0.02349  1.0000
  C   C19       1.0  0.96712  0.71602  0.00824  1.0000
  C   C20       1.0  0.03308  0.71602  0.00824  1.0000
  C   C21       1.0  0.06606  0.72997  0.00857  1.0000
  C   C22       1.0  0.03308  0.74392  0.00891  1.0000
  C   C23       1.0  0.96712  0.74392  0.00891  1.0000
  C   C24       1.0  0.93414  0.72997  0.00857  1.0000
  C   C25       1.0  0.06606  0.75787  0.00924  1.0000
  C   C26       1.0  0.13202  0.75787  0.00924  1.0000
  C   C27       1.0  0.16500  0.74392  0.00891  1.0000
  C   C28       1.0  0.13202  0.72997  0.00857  1.0000
  C   C29       1.0  0.93414  0.70207  0.00791  1.0000
  C   C30       1.0  0.96712  0.68812  0.00758  1.0000
  C   C31       1.0  0.03308  0.68812  0.00758  1.0000
  C   C32       1.0  0.06606  0.70207  0.00791  1.0000
  C   C33       1.0  0.86818  0.72997  0.00857  1.0000
  C   C34       1.0  0.83520  0.74392  0.00891  1.0000
  C   C35       1.0  0.86818  0.75787  0.00924  1.0000
  C   C36       1.0  0.93414  0.75787  0.00924  1.0000
  H   H7        1.0  0.04132  0.76833  0.00949  1.0000
  O   O7        1.0  0.16170  0.77042  0.00954  1.0000
  O   O8        1.0  0.22436  0.74392  0.00891  1.0000
  H   H8        1.0  0.15675  0.71951  0.00832  1.0000
  H   H9        1.0  0.88467  0.70207  0.00791  1.0000
  O   O9        1.0  0.93744  0.67557  0.00728  1.0000
  O   O10       1.0  0.06276  0.67557  0.00728  1.0000
  H   H10       1.0  0.11553  0.70207  0.00791  1.0000
  H   H11       1.0  0.84345  0.71951  0.00832  1.0000
  O   O11       1.0  0.77584  0.74392  0.00891  1.0000
  O   O12       1.0  0.83850  0.77042  0.00954  1.0000
  H   H12       1.0  0.95888  0.76833  0.00949  1.0000
  C   C37       1.0  0.46702  0.81440  0.02384  1.0000
  C   C38       1.0  0.53298  0.81440  0.02384  1.0000
  C   C39       1.0  0.56596  0.80045  0.02351  1.0000
  C   C40       1.0  0.53298  0.78650  0.02317  1.0000
  C   C41       1.0  0.46702  0.78650  0.02317  1.0000
  C   C42       1.0  0.43404  0.80045  0.02351  1.0000
  C   C43       1.0  0.56596  0.77255  0.02283  1.0000
  C   C44       1.0  0.63192  0.77255  0.02283  1.0000
  C   C45       1.0  0.66490  0.78650  0.02317  1.0000
  C   C46       1.0  0.63192  0.80045  0.02351  1.0000
  C   C47       1.0  0.43404  0.82834  0.02418  1.0000
  C   C48       1.0  0.46702  0.84229  0.02451  1.0000
  C   C49       1.0  0.53298  0.84229  0.02451  1.0000
  C   C50       1.0  0.56596  0.82834  0.02418  1.0000
  C   C51       1.0  0.36808  0.80045  0.02351  1.0000
  C   C52       1.0  0.33510  0.78650  0.02317  1.0000
  C   C53       1.0  0.36808  0.77255  0.02283  1.0000
  C   C54       1.0  0.43404  0.77255  0.02283  1.0000
  H   H13       1.0  0.54122  0.76208  0.02258  1.0000
  O   O13       1.0  0.66160  0.75999  0.02253  1.0000
  O   O14       1.0  0.72426  0.78650  0.02317  1.0000
  H   H14       1.0  0.65665  0.81091  0.02376  1.0000
  H   H15       1.0  0.38457  0.82834  0.02418  1.0000
  O   O15       1.0  0.43734  0.85485  0.02482  1.0000
  O   O16       1.0  0.56266  0.85485  0.02482  1.0000
  H   H16       1.0  0.61543  0.82834  0.02418  1.0000
  H   H17       1.0  0.34335  0.81091  0.02376  1.0000
  O   O17       1.0  0.27574  0.78650  0.02317  1.0000
  O   O18       1.0  0.33840  0.75999  0.02253  1.0000
  H   H18       1.0  0.45878  0.76208  0.02258  1.0000
  C   C55       1.0  0.46702  0.21603  0.00687  1.0000
  C   C56       1.0  0.53298  0.21603  0.00687  1.0000
  C   C57       1.0  0.56596  0.22998  0.00732  1.0000
  C   C58       1.0  0.53298  0.24393  0.00778  1.0000
  C   C59       1.0  0.46702  0.24393  0.00778  1.0000
  C   C60       1.0  0.43404  0.22998  0.00732  1.0000
  C   C61       1.0  0.56596  0.25788  0.00823  1.0000
  C   C62       1.0  0.63192  0.25788  0.00823  1.0000
  C   C63       1.0  0.66490  0.24393  0.00778  1.0000
  C   C64       1.0  0.63192  0.22998  0.00732  1.0000
  C   C65       1.0  0.43404  0.20208  0.00641  1.0000
  C   C66       1.0  0.46702  0.18813  0.00596  1.0000
  C   C67       1.0  0.53298  0.18813  0.00596  1.0000
  C   C68       1.0  0.56596  0.20208  0.00641  1.0000
  C   C69       1.0  0.36808  0.22998  0.00732  1.0000
  C   C70       1.0  0.33510  0.24393  0.00778  1.0000
  C   C71       1.0  0.36808  0.25788  0.00823  1.0000
  C   C72       1.0  0.43404  0.25788  0.00823  1.0000
  H   H19       1.0  0.54122  0.26834  0.00857  1.0000
  O   O19       1.0  0.66160  0.27043  0.00864  1.0000
  O   O20       1.0  0.72426  0.24393  0.00778  1.0000
  H   H20       1.0  0.65665  0.21952  0.00698  1.0000
  H   H21       1.0  0.38457  0.20208  0.00641  1.0000
  O   O21       1.0  0.43734  0.17558  0.00555  1.0000
  O   O22       1.0  0.56266  0.17558  0.00555  1.0000
  H   H22       1.0  0.61543  0.20208  0.00641  1.0000
  H   H23       1.0  0.34335  0.21952  0.00698  1.0000
  O   O23       1.0  0.27574  0.24393  0.00778  1.0000
  O   O24       1.0  0.33840  0.27043  0.00864  1.0000
  H   H24       1.0  0.45878  0.26834  0.00857  1.0000
  C   C73       1.0  0.00010  0.44798  0.95691  1.0000
  C   C74       1.0  0.00010  0.43265  0.98871  1.0000
  C   C75       1.0  0.00010  0.43269  0.05056  1.0000
  C   C76       1.0  0.00010  0.44804  0.08115  1.0000
  C   C77       1.0  0.00010  0.46294  0.04826  1.0000
  C   C78       1.0  0.00010  0.46291  0.98862  1.0000
  C   C79       1.0  0.00010  0.47966  0.96928  1.0000
  N   N1        1.0  0.00010  0.49024  0.01751  1.0000
  C   C80       1.0  0.00010  0.47971  0.06646  1.0000
  N   N2        1.0  0.00010  0.48464  0.12405  1.0000
  C   C81       1.0  0.00010  0.50128  0.14044  1.0000
  N   N3        1.0  0.00010  0.51528  0.10340  1.0000
  C   C82       1.0  0.00010  0.52930  0.13946  1.0000
  C   C83       1.0  0.00010  0.52390  0.19772  1.0000
  C   C84       1.0  0.00010  0.50671  0.19838  1.0000
  N   N4        1.0  0.00010  0.54022  0.01604  1.0000
  C   C85       1.0  0.00010  0.55077  0.06421  1.0000
  N   N5        1.0  0.00010  0.54591  0.12196  1.0000
  C   C86       1.0  0.00010  0.56753  0.04483  1.0000
  C   C87       1.0  0.00010  0.56752  0.98526  1.0000
  C   C88       1.0  0.00010  0.55075  0.96709  1.0000
  C   C89       1.0  0.00010  0.49740  0.25039  1.0000
  C   C90       1.0  0.00010  0.50636  0.30320  1.0000
  C   C91       1.0  0.00010  0.52418  0.30257  1.0000
  C   C92       1.0  0.00010  0.53319  0.24911  1.0000
  C   C93       1.0  0.00010  0.58242  0.95240  1.0000
  C   C94       1.0  0.00010  0.59777  0.98291  1.0000
  C   C95       1.0  0.00010  0.59777  0.04469  1.0000
  C   C96       1.0  0.00010  0.58244  0.07648  1.0000
  N   N6        1.0  0.00010  0.51517  0.93012  1.0000
  C   C97       1.0  0.00010  0.52917  0.89313  1.0000
  N   N7        1.0  0.00010  0.54583  0.90959  1.0000
  C   C98       1.0  0.00010  0.52375  0.83517  1.0000
  C   C99       1.0  0.00010  0.50655  0.83577  1.0000
  C   C100      1.0  0.00010  0.50114  0.89403  1.0000
  C   C101      1.0  0.00010  0.49725  0.78435  1.0000
  C   C102      1.0  0.00010  0.50625  0.73086  1.0000
  C   C103      1.0  0.00010  0.52409  0.73029  1.0000
  C   C104      1.0  0.00010  0.53307  0.78319  1.0000
  N   N8        1.0  0.00010  0.48451  0.91149  1.0000
  H   H25       1.0  0.00010  0.44814  0.91164  1.0000
  H   H26       1.0  0.00010  0.44824  0.12645  1.0000
  H   H27       1.0  0.00010  0.48433  0.25021  1.0000
  H   H28       1.0  0.00010  0.54624  0.24801  1.0000
  H   H29       1.0  0.00010  0.58223  0.90716  1.0000
  H   H30       1.0  0.00010  0.58227  0.12175  1.0000
  H   H31       1.0  0.00010  0.48419  0.78542  1.0000
  H   H32       1.0  0.00010  0.54614  0.78340  1.0000
  C   C105      1.0  0.00010  0.49750  0.67797  1.0000
  C   C106      1.0  0.00010  0.50638  0.62462  1.0000
  C   C107      1.0  0.00010  0.52403  0.62404  1.0000
  C   C108      1.0  0.00010  0.53287  0.67681  1.0000
  C   C109      1.0  0.00010  0.41728  0.95895  1.0000
  C   C110      1.0  0.00010  0.40198  0.99030  1.0000
  C   C111      1.0  0.00010  0.40201  0.05144  1.0000
  C   C112      1.0  0.00010  0.41734  0.08155  1.0000
  C   C113      1.0  0.00010  0.49757  0.35673  1.0000
  C   C114      1.0  0.00010  0.50642  0.40945  1.0000
  C   C115      1.0  0.00010  0.52406  0.40879  1.0000
  C   C116      1.0  0.00010  0.53292  0.35543  1.0000
  C   C117      1.0  0.00010  0.61311  0.95189  1.0000
  C   C118      1.0  0.00010  0.62841  0.98192  1.0000
  C   C119      1.0  0.00010  0.62842  0.04300  1.0000
  C   C120      1.0  0.00010  0.61312  0.07435  1.0000
  H   H33       1.0  0.00010  0.48444  0.67830  1.0000
  O   O25       1.0  0.00010  0.49782  0.57314  1.0000
  O   O26       1.0  0.00010  0.53262  0.57198  1.0000
  H   H34       1.0  0.00010  0.54595  0.67623  1.0000
  H   H35       1.0  0.00010  0.41723  0.91367  1.0000
  O   O27       1.0  0.00010  0.38703  0.96119  1.0000
  O   O28       1.0  0.00010  0.38708  0.08183  1.0000
  H   H36       1.0  0.00010  0.41731  0.12684  1.0000
  H   H37       1.0  0.00010  0.48452  0.35735  1.0000
  O   O29       1.0  0.00010  0.49783  0.46154  1.0000
  O   O30       1.0  0.00010  0.53260  0.46022  1.0000
  H   H38       1.0  0.00010  0.54598  0.35506  1.0000
  H   H39       1.0  0.00010  0.61314  0.90668  1.0000
  O   O31       1.0  0.00010  0.64334  0.95163  1.0000
  O   O32       1.0  0.00010  0.64335  0.07208  1.0000
  H   H40       1.0  0.00010  0.61316  0.11960  1.0000
  Ni  Ni1       1.0  0.00010  0.51523  0.01677  1.0000
  C   C121      1.0  0.50000  0.94799  0.95566  1.0000
  C   C122      1.0  0.50000  0.93267  0.98745  1.0000
  C   C123      1.0  0.50000  0.93270  0.04930  1.0000
  C   C124      1.0  0.50000  0.94805  0.07990  1.0000
  C   C125      1.0  0.50000  0.96295  0.04701  1.0000
  C   C126      1.0  0.50000  0.96292  0.98737  1.0000
  C   C127      1.0  0.50000  0.97967  0.96803  1.0000
  N   N9        1.0  0.50000  0.99025  0.01626  1.0000
  C   C128      1.0  0.50000  0.97972  0.06520  1.0000
  N   N10       1.0  0.50000  0.98465  0.12279  1.0000
  C   C129      1.0  0.50000  0.00129  0.13919  1.0000
  N   N11       1.0  0.50000  0.01529  0.10215  1.0000
  C   C130      1.0  0.50000  0.02931  0.13820  1.0000
  C   C131      1.0  0.50000  0.02391  0.19647  1.0000
  C   C132      1.0  0.50000  0.00672  0.19713  1.0000
  N   N12       1.0  0.50000  0.04023  0.01479  1.0000
  C   C133      1.0  0.50000  0.05078  0.06296  1.0000
  N   N13       1.0  0.50000  0.04593  0.12071  1.0000
  C   C134      1.0  0.50000  0.06754  0.04358  1.0000
  C   C135      1.0  0.50000  0.06753  0.98401  1.0000
  C   C136      1.0  0.50000  0.05076  0.96584  1.0000
  C   C137      1.0  0.50000  0.99741  0.24914  1.0000
  C   C138      1.0  0.50000  0.00637  0.30195  1.0000
  C   C139      1.0  0.50000  0.02419  0.30131  1.0000
  C   C140      1.0  0.50000  0.03320  0.24785  1.0000
  C   C141      1.0  0.50000  0.08243  0.95115  1.0000
  C   C142      1.0  0.50000  0.09778  0.98166  1.0000
  C   C143      1.0  0.50000  0.09778  0.04344  1.0000
  C   C144      1.0  0.50000  0.08246  0.07523  1.0000
  N   N14       1.0  0.50000  0.01518  0.92886  1.0000
  C   C145      1.0  0.50000  0.02918  0.89188  1.0000
  N   N15       1.0  0.50000  0.04584  0.90834  1.0000
  C   C146      1.0  0.50000  0.02376  0.83391  1.0000
  C   C147      1.0  0.50000  0.00656  0.83451  1.0000
  C   C148      1.0  0.50000  0.00115  0.89278  1.0000
  C   C149      1.0  0.50000  0.99726  0.78310  1.0000
  C   C150      1.0  0.50000  0.00626  0.72961  1.0000
  C   C151      1.0  0.50000  0.02410  0.72903  1.0000
  C   C152      1.0  0.50000  0.03308  0.78194  1.0000
  N   N16       1.0  0.50000  0.98452  0.91024  1.0000
  H   H41       1.0  0.50000  0.94815  0.91039  1.0000
  H   H42       1.0  0.50000  0.94825  0.12520  1.0000
  H   H43       1.0  0.50000  0.98434  0.24896  1.0000
  H   H44       1.0  0.50000  0.04625  0.24676  1.0000
  H   H45       1.0  0.50000  0.08224  0.90591  1.0000
  H   H46       1.0  0.50000  0.08228  0.12050  1.0000
  H   H47       1.0  0.50000  0.98420  0.78417  1.0000
  H   H48       1.0  0.50000  0.04615  0.78215  1.0000
  C   C153      1.0  0.50000  0.99751  0.67672  1.0000
  C   C154      1.0  0.50000  0.00640  0.62336  1.0000
  C   C155      1.0  0.50000  0.02404  0.62279  1.0000
  C   C156      1.0  0.50000  0.03288  0.67556  1.0000
  C   C157      1.0  0.50000  0.91729  0.95770  1.0000
  C   C158      1.0  0.50000  0.90199  0.98905  1.0000
  C   C159      1.0  0.50000  0.90202  0.05019  1.0000
  C   C160      1.0  0.50000  0.91735  0.08030  1.0000
  C   C161      1.0  0.50000  0.99758  0.35548  1.0000
  C   C162      1.0  0.50000  0.00643  0.40820  1.0000
  C   C163      1.0  0.50000  0.02407  0.40754  1.0000
  C   C164      1.0  0.50000  0.03293  0.35417  1.0000
  C   C165      1.0  0.50000  0.11312  0.95063  1.0000
  C   C166      1.0  0.50000  0.12842  0.98067  1.0000
  C   C167      1.0  0.50000  0.12843  0.04175  1.0000
  C   C168      1.0  0.50000  0.11313  0.07310  1.0000
  H   H49       1.0  0.50000  0.98445  0.67705  1.0000
  O   O33       1.0  0.50000  0.99783  0.57189  1.0000
  O   O34       1.0  0.50000  0.03263  0.57073  1.0000
  H   H50       1.0  0.50000  0.04596  0.67498  1.0000
  H   H51       1.0  0.50000  0.91724  0.91242  1.0000
  O   O35       1.0  0.50000  0.88704  0.95994  1.0000
  O   O36       1.0  0.50000  0.88710  0.08058  1.0000
  H   H52       1.0  0.50000  0.91732  0.12558  1.0000
  H   H53       1.0  0.50000  0.98453  0.35610  1.0000
  O   O37       1.0  0.50000  0.99784  0.46029  1.0000
  O   O38       1.0  0.50000  0.03261  0.45897  1.0000
  H   H54       1.0  0.50000  0.04599  0.35381  1.0000
  H   H55       1.0  0.50000  0.11315  0.90543  1.0000
  O   O39       1.0  0.50000  0.14335  0.95037  1.0000
  O   O40       1.0  0.50000  0.14336  0.07083  1.0000
  H   H56       1.0  0.50000  0.11317  0.11835  1.0000
  Ni  Ni2       1.0  0.50000  0.01524  0.01552  1.0000
  Zn  Zn1       1.0  0.00010  0.37095  0.02403  1.0000
  Zn  Zn2       1.0  0.00010  0.65946  0.00956  1.0000
  Zn  Zn3       1.0  0.50000  0.87096  0.02254  1.0000
  Zn  Zn4       1.0  0.50000  0.15947  0.00807  1.0000
  Cu  Cu1       1.0  0.25000  0.26521  0.01604  1.0000
  Cu  Cu2       1.0  0.75010  0.76521  0.01604  1.0000
  Cu  Cu3       1.0  0.25000  0.76521  0.01604  1.0000
  Cu  Cu4       1.0  0.75010  0.26521  0.01604  1.0000
  Cu  Cu5       1.0  0.00010  0.51522  0.51672  1.0000
  Cu  Cu6       1.0  0.50000  0.01523  0.51547  1.0000
