data_image0
_chemical_formula_structural       C18HO2H2O2H2O2HC18HO2H2O2H2O2HC18HO2H2O2H2O2HC18HO2H2O2H2O2HC7NCNCNC3NCNC11NCNC7NHO2H2O2H2O2H2O2HNiC7NCNCNC3NCNC11NCNC7NHO2H2O2H2O2H2O2HNiZn4Cu6
_chemical_formula_sum              "C136 H40 O40 N16 Ni2 Zn4 Cu6"
_cell_length_a       21.23
_cell_length_b       75.2494
_cell_length_c       19.2399
_cell_angle_alpha    90.007
_cell_angle_beta     90
_cell_angle_gamma    90

_space_group_name_H-M_alt    "P 1"
_space_group_IT_number       1

loop_
  _space_group_symop_operation_xyz
  'x, y, z'

loop_
  _atom_site_type_symbol
  _atom_site_label
  _atom_site_symmetry_multiplicity
  _atom_site_fract_x
  _atom_site_fract_y
  _atom_site_fract_z
  _atom_site_occupancy
  C   C1        1.0  0.96713  0.31294  0.00010  1.0000
  C   C2        1.0  0.03307  0.31294  0.00010  1.0000
  C   C3        1.0  0.06604  0.29682  0.00010  1.0000
  C   C4        1.0  0.03307  0.28071  0.00010  1.0000
  C   C5        1.0  0.96713  0.28071  0.00010  1.0000
  C   C6        1.0  0.93416  0.29682  0.00010  1.0000
  C   C7        1.0  0.06604  0.26460  0.00010  1.0000
  C   C8        1.0  0.13199  0.26460  0.00010  1.0000
  C   C9        1.0  0.16496  0.28071  0.00010  1.0000
  C   C10       1.0  0.13199  0.29682  0.00010  1.0000
  C   C11       1.0  0.93416  0.32905  0.00010  1.0000
  C   C12       1.0  0.96713  0.34516  0.00010  1.0000
  C   C13       1.0  0.03307  0.34516  0.00010  1.0000
  C   C14       1.0  0.06604  0.32905  0.00010  1.0000
  C   C15       1.0  0.86821  0.29682  0.00010  1.0000
  C   C16       1.0  0.83524  0.28071  0.00010  1.0000
  C   C17       1.0  0.86821  0.26460  0.00010  1.0000
  C   C18       1.0  0.93416  0.26460  0.00010  1.0000
  H   H1        1.0  0.04132  0.25252  0.00010  1.0000
  O   O1        1.0  0.16166  0.25010  0.00010  1.0000
  O   O2        1.0  0.22431  0.28071  0.00010  1.0000
  H   H2        1.0  0.15672  0.30891  0.00010  1.0000
  H   H3        1.0  0.88470  0.32905  0.00010  1.0000
  O   O3        1.0  0.93745  0.35966  0.00010  1.0000
  O   O4        1.0  0.06275  0.35966  0.00010  1.0000
  H   H4        1.0  0.11550  0.32905  0.00010  1.0000
  H   H5        1.0  0.84348  0.30891  0.00010  1.0000
  O   O5        1.0  0.77589  0.28071  0.00010  1.0000
  O   O6        1.0  0.83854  0.25010  0.00010  1.0000
  H   H6        1.0  0.95888  0.25252  0.00010  1.0000
  C   C19       1.0  0.96713  0.69927  0.00010  1.0000
  C   C20       1.0  0.03307  0.69927  0.00010  1.0000
  C   C21       1.0  0.06604  0.71538  0.00010  1.0000
  C   C22       1.0  0.03307  0.73150  0.00010  1.0000
  C   C23       1.0  0.96713  0.73150  0.00010  1.0000
  C   C24       1.0  0.93416  0.71538  0.00010  1.0000
  C   C25       1.0  0.06604  0.74761  0.00010  1.0000
  C   C26       1.0  0.13199  0.74761  0.00010  1.0000
  C   C27       1.0  0.16496  0.73150  0.00010  1.0000
  C   C28       1.0  0.13199  0.71538  0.00010  1.0000
  C   C29       1.0  0.93416  0.68316  0.00010  1.0000
  C   C30       1.0  0.96713  0.66705  0.00010  1.0000
  C   C31       1.0  0.03307  0.66705  0.00010  1.0000
  C   C32       1.0  0.06604  0.68316  0.00010  1.0000
  C   C33       1.0  0.86821  0.71538  0.00010  1.0000
  C   C34       1.0  0.83524  0.73150  0.00010  1.0000
  C   C35       1.0  0.86821  0.74761  0.00010  1.0000
  C   C36       1.0  0.93416  0.74761  0.00010  1.0000
  H   H7        1.0  0.04132  0.75969  0.00010  1.0000
  O   O7        1.0  0.16166  0.76211  0.00010  1.0000
  O   O8        1.0  0.22431  0.73150  0.00010  1.0000
  H   H8        1.0  0.15672  0.70330  0.00010  1.0000
  H   H9        1.0  0.88470  0.68316  0.00010  1.0000
  O   O9        1.0  0.93745  0.65255  0.00010  1.0000
  O   O10       1.0  0.06275  0.65255  0.00010  1.0000
  H   H10       1.0  0.11550  0.68316  0.00010  1.0000
  H   H11       1.0  0.84348  0.70330  0.00010  1.0000
  O   O11       1.0  0.77589  0.73150  0.00010  1.0000
  O   O12       1.0  0.83854  0.76211  0.00010  1.0000
  H   H12       1.0  0.95888  0.75969  0.00010  1.0000
  C   C37       1.0  0.46703  0.81294  0.00010  1.0000
  C   C38       1.0  0.53297  0.81294  0.00010  1.0000
  C   C39       1.0  0.56594  0.79683  0.00010  1.0000
  C   C40       1.0  0.53297  0.78072  0.00010  1.0000
  C   C41       1.0  0.46703  0.78072  0.00010  1.0000
  C   C42       1.0  0.43406  0.79683  0.00010  1.0000
  C   C43       1.0  0.56594  0.76460  0.00010  1.0000
  C   C44       1.0  0.63189  0.76460  0.00010  1.0000
  C   C45       1.0  0.66486  0.78072  0.00010  1.0000
  C   C46       1.0  0.63189  0.79683  0.00010  1.0000
  C   C47       1.0  0.43406  0.82905  0.00010  1.0000
  C   C48       1.0  0.46703  0.84517  0.00010  1.0000
  C   C49       1.0  0.53297  0.84517  0.00010  1.0000
  C   C50       1.0  0.56594  0.82905  0.00010  1.0000
  C   C51       1.0  0.36811  0.79683  0.00010  1.0000
  C   C52       1.0  0.33514  0.78072  0.00010  1.0000
  C   C53       1.0  0.36811  0.76460  0.00010  1.0000
  C   C54       1.0  0.43406  0.76460  0.00010  1.0000
  H   H13       1.0  0.54122  0.75252  0.00010  1.0000
  O   O13       1.0  0.66156  0.75010  0.00010  1.0000
  O   O14       1.0  0.72421  0.78072  0.00010  1.0000
  H   H14       1.0  0.65662  0.80891  0.00010  1.0000
  H   H15       1.0  0.38460  0.82905  0.00010  1.0000
  O   O15       1.0  0.43735  0.85967  0.00010  1.0000
  O   O16       1.0  0.56265  0.85967  0.00010  1.0000
  H   H16       1.0  0.61540  0.82905  0.00010  1.0000
  H   H17       1.0  0.34338  0.80891  0.00010  1.0000
  O   O17       1.0  0.27579  0.78072  0.00010  1.0000
  O   O18       1.0  0.33844  0.75010  0.00010  1.0000
  H   H18       1.0  0.45878  0.75252  0.00010  1.0000
  C   C55       1.0  0.46703  0.19927  0.00010  1.0000
  C   C56       1.0  0.53297  0.19927  0.00010  1.0000
  C   C57       1.0  0.56594  0.21539  0.00010  1.0000
  C   C58       1.0  0.53297  0.23150  0.00010  1.0000
  C   C59       1.0  0.46703  0.23150  0.00010  1.0000
  C   C60       1.0  0.43406  0.21539  0.00010  1.0000
  C   C61       1.0  0.56594  0.24761  0.00010  1.0000
  C   C62       1.0  0.63189  0.24761  0.00010  1.0000
  C   C63       1.0  0.66486  0.23150  0.00010  1.0000
  C   C64       1.0  0.63189  0.21539  0.00010  1.0000
  C   C65       1.0  0.43406  0.18316  0.00010  1.0000
  C   C66       1.0  0.46703  0.16705  0.00010  1.0000
  C   C67       1.0  0.53297  0.16705  0.00010  1.0000
  C   C68       1.0  0.56594  0.18316  0.00010  1.0000
  C   C69       1.0  0.36811  0.21539  0.00010  1.0000
  C   C70       1.0  0.33514  0.23150  0.00010  1.0000
  C   C71       1.0  0.36811  0.24761  0.00010  1.0000
  C   C72       1.0  0.43406  0.24761  0.00010  1.0000
  H   H19       1.0  0.54122  0.25969  0.00010  1.0000
  O   O19       1.0  0.66156  0.26211  0.00010  1.0000
  O   O20       1.0  0.72421  0.23150  0.00010  1.0000
  H   H20       1.0  0.65662  0.20330  0.00010  1.0000
  H   H21       1.0  0.38460  0.18316  0.00010  1.0000
  O   O21       1.0  0.43735  0.15255  0.00010  1.0000
  O   O22       1.0  0.56265  0.15255  0.00010  1.0000
  H   H22       1.0  0.61540  0.18316  0.00010  1.0000
  H   H23       1.0  0.34338  0.20330  0.00010  1.0000
  O   O23       1.0  0.27579  0.23150  0.00010  1.0000
  O   O24       1.0  0.33844  0.26211  0.00010  1.0000
  H   H24       1.0  0.45878  0.25969  0.00010  1.0000
  C   C73       1.0  0.99990  0.48537  0.29967  1.0000
  C   C74       1.0  0.99990  0.49575  0.36913  1.0000
  C   C75       1.0  0.99990  0.51643  0.36915  1.0000
  C   C76       1.0  0.00010  0.52683  0.29970  1.0000
  C   C77       1.0  0.99990  0.51599  0.23233  1.0000
  C   C78       1.0  0.99990  0.49621  0.23231  1.0000
  C   C79       1.0  0.99990  0.49003  0.15660  1.0000
  N   N1        1.0  0.99990  0.50610  0.10764  1.0000
  C   C80       1.0  0.99990  0.52217  0.15662  1.0000
  N   N2        1.0  0.00010  0.54112  0.13750  1.0000
  C   C81       1.0  0.00010  0.54602  0.06338  1.0000
  N   N3        1.0  0.99990  0.53349  0.00010  1.0000
  C   C82       1.0  0.99990  0.54601  0.93768  1.0000
  C   C83       1.0  0.00010  0.56537  0.96185  1.0000
  C   C84       1.0  0.00010  0.56537  0.03919  1.0000
  N   N4        1.0  0.99990  0.50610  0.89339  1.0000
  C   C85       1.0  0.99990  0.52217  0.84442  1.0000
  N   N5        1.0  0.99990  0.54112  0.86355  1.0000
  C   C86       1.0  0.99990  0.51599  0.76870  1.0000
  C   C87       1.0  0.00010  0.49621  0.76870  1.0000
  C   C88       1.0  0.00010  0.49003  0.84441  1.0000
  C   C89       1.0  0.00010  0.58260  0.08156  1.0000
  C   C90       1.0  0.00010  0.60036  0.04090  1.0000
  C   C91       1.0  0.00010  0.60035  0.96003  1.0000
  C   C92       1.0  0.00010  0.58259  0.91943  1.0000
  C   C93       1.0  0.00010  0.48537  0.70134  1.0000
  C   C94       1.0  0.99990  0.49576  0.63190  1.0000
  C   C95       1.0  0.99990  0.51643  0.63190  1.0000
  C   C96       1.0  0.99990  0.52683  0.70134  1.0000
  N   N6        1.0  0.99990  0.47871  0.00010  1.0000
  C   C97       1.0  0.00010  0.46619  0.93765  1.0000
  N   N7        1.0  0.00010  0.47108  0.86353  1.0000
  C   C98       1.0  0.00010  0.44684  0.96179  1.0000
  C   C99       1.0  0.99990  0.44683  0.03914  1.0000
  C   C100      1.0  0.99990  0.46619  0.06333  1.0000
  C   C101      1.0  0.99990  0.42961  0.08151  1.0000
  C   C102      1.0  0.00010  0.41185  0.04084  1.0000
  C   C103      1.0  0.00010  0.41186  0.95996  1.0000
  C   C104      1.0  0.00010  0.42962  0.91936  1.0000
  N   N8        1.0  0.99990  0.47108  0.13746  1.0000
  H   H25       1.0  0.99990  0.47142  0.29876  1.0000
  O   O25       1.0  0.99990  0.48716  0.42774  1.0000
  O   O26       1.0  0.99990  0.52502  0.42777  1.0000
  H   H26       1.0  0.00010  0.54078  0.29882  1.0000
  H   H27       1.0  0.00010  0.58238  0.13613  1.0000
  O   O27       1.0  0.00010  0.61535  0.07449  1.0000
  O   O28       1.0  0.00010  0.61533  0.92639  1.0000
  H   H28       1.0  0.00010  0.58235  0.86486  1.0000
  H   H29       1.0  0.00010  0.47142  0.70223  1.0000
  O   O29       1.0  0.99990  0.48716  0.57328  1.0000
  O   O30       1.0  0.99990  0.52503  0.57329  1.0000
  H   H30       1.0  0.99990  0.54078  0.70222  1.0000
  H   H31       1.0  0.99990  0.42983  0.13608  1.0000
  O   O31       1.0  0.00010  0.39686  0.07443  1.0000
  O   O32       1.0  0.00010  0.39688  0.92633  1.0000
  H   H32       1.0  0.00010  0.42985  0.86480  1.0000
  Ni  Ni1       1.0  0.99990  0.50610  0.00010  1.0000
  C   C105      1.0  0.49941  0.98537  0.29964  1.0000
  C   C106      1.0  0.49957  0.99576  0.36910  1.0000
  C   C107      1.0  0.49979  0.01644  0.36912  1.0000
  C   C108      1.0  0.49990  0.02683  0.29967  1.0000
  C   C109      1.0  0.49976  0.01599  0.23229  1.0000
  C   C110      1.0  0.49948  0.99622  0.23228  1.0000
  C   C111      1.0  0.49941  0.99004  0.15657  1.0000
  N   N9        1.0  0.49962  0.00611  0.10761  1.0000
  C   C112      1.0  0.49985  0.02217  0.15659  1.0000
  N   N10       1.0  0.50015  0.04113  0.13747  1.0000
  C   C113      1.0  0.50011  0.04602  0.06334  1.0000
  N   N11       1.0  0.49989  0.03350  0.00010  1.0000
  C   C114      1.0  0.49979  0.04602  0.93765  1.0000
  C   C115      1.0  0.50000  0.06537  0.96182  1.0000
  C   C116      1.0  0.50017  0.06538  0.03916  1.0000
  N   N12       1.0  0.49975  0.00611  0.89336  1.0000
  C   C117      1.0  0.49957  0.02217  0.84438  1.0000
  N   N13       1.0  0.49948  0.04113  0.86352  1.0000
  C   C118      1.0  0.49969  0.01599  0.76867  1.0000
  C   C119      1.0  0.49996  0.99622  0.76867  1.0000
  C   C120      1.0  0.50004  0.99004  0.84438  1.0000
  C   C121      1.0  0.50027  0.08261  0.08153  1.0000
  C   C122      1.0  0.50026  0.10036  0.04087  1.0000
  C   C123      1.0  0.50021  0.10035  0.96000  1.0000
  C   C124      1.0  0.50003  0.08259  0.91940  1.0000
  C   C125      1.0  0.50007  0.98538  0.70131  1.0000
  C   C126      1.0  0.49988  0.99576  0.63186  1.0000
  C   C127      1.0  0.49966  0.01644  0.63187  1.0000
  C   C128      1.0  0.49958  0.02683  0.70131  1.0000
  N   N14       1.0  0.49982  0.97872  0.00010  1.0000
  C   C129      1.0  0.50011  0.96620  0.93762  1.0000
  N   N15       1.0  0.50034  0.97109  0.86350  1.0000
  C   C130      1.0  0.50010  0.94684  0.96176  1.0000
  C   C131      1.0  0.49978  0.94684  0.03911  1.0000
  C   C132      1.0  0.49958  0.96620  0.06330  1.0000
  C   C133      1.0  0.49979  0.92961  0.08148  1.0000
  C   C134      1.0  0.50008  0.91186  0.04081  1.0000
  C   C135      1.0  0.50028  0.91186  0.95993  1.0000
  C   C136      1.0  0.50030  0.92962  0.91933  1.0000
  N   N16       1.0  0.49925  0.97109  0.13743  1.0000
  H   H33       1.0  0.49926  0.97142  0.29873  1.0000
  O   O33       1.0  0.49951  0.98716  0.42771  1.0000
  O   O34       1.0  0.49988  0.02503  0.42774  1.0000
  H   H34       1.0  0.50007  0.04078  0.29879  1.0000
  H   H35       1.0  0.50034  0.08239  0.13610  1.0000
  O   O35       1.0  0.50028  0.11535  0.07446  1.0000
  O   O36       1.0  0.50032  0.11533  0.92636  1.0000
  H   H36       1.0  0.49997  0.08236  0.86483  1.0000
  H   H37       1.0  0.50024  0.97142  0.70220  1.0000
  O   O37       1.0  0.49986  0.98717  0.57325  1.0000
  O   O38       1.0  0.49953  0.02503  0.57326  1.0000
  H   H38       1.0  0.49944  0.04078  0.70219  1.0000
  H   H39       1.0  0.49963  0.92983  0.13605  1.0000
  O   O39       1.0  0.50018  0.89687  0.07440  1.0000
  O   O40       1.0  0.50042  0.89688  0.92630  1.0000
  H   H40       1.0  0.50046  0.92986  0.86477  1.0000
  Ni  Ni2       1.0  0.49966  0.00611  0.00010  1.0000
  Zn  Zn1       1.0  0.00010  0.37827  0.00010  1.0000
  Zn  Zn2       1.0  0.00010  0.63394  0.00010  1.0000
  Zn  Zn3       1.0  0.50015  0.87827  0.00010  1.0000
  Zn  Zn4       1.0  0.50015  0.13395  0.00010  1.0000
  Cu  Cu1       1.0  0.25000  0.25611  0.00010  1.0000
  Cu  Cu2       1.0  0.75010  0.75611  0.00010  1.0000
  Cu  Cu3       1.0  0.25000  0.75611  0.00010  1.0000
  Cu  Cu4       1.0  0.75010  0.25611  0.00010  1.0000
  Cu  Cu5       1.0  0.99990  0.50609  0.50052  1.0000
  Cu  Cu6       1.0  0.49970  0.00610  0.50049  1.0000
