data_image0
_chemical_formula_structural       C26H7O2H2O2HC4HO2HC26H7O2H2O2HC4HO2HC26H7O2H2O2HC4HO2HC26H7O2H2O2HC4HO2HC7NCNCNC3NCNC11NCNC7NHO2H2O2H2O2H2O2HNiC7NCNCNC3NCNC11NCNC7NHO2H2O2H2O2H2O2HNiZn4Cu6
_chemical_formula_sum              "C184 H64 O40 N16 Ni2 Zn4 Cu6"
_cell_length_a       32.449
_cell_length_b       94.683
_cell_length_c       19.2398
_cell_angle_alpha    90.0045
_cell_angle_beta     90
_cell_angle_gamma    90

_space_group_name_H-M_alt    "P 1"
_space_group_IT_number       1

loop_
  _space_group_symop_operation_xyz
  'x, y, z'

loop_
  _atom_site_type_symbol
  _atom_site_label
  _atom_site_symmetry_multiplicity
  _atom_site_fract_x
  _atom_site_fract_y
  _atom_site_fract_z
  _atom_site_occupancy
  C   C1        1.0  0.95263  0.31913  0.00010  1.0000
  C   C2        1.0  0.97636  0.30505  0.00010  1.0000
  C   C3        1.0  0.02382  0.30505  0.00010  1.0000
  C   C4        1.0  0.04755  0.31913  0.00010  1.0000
  C   C5        1.0  0.02382  0.33322  0.00010  1.0000
  C   C6        1.0  0.97636  0.33322  0.00010  1.0000
  C   C7        1.0  0.09501  0.31913  0.00010  1.0000
  C   C8        1.0  0.11874  0.30505  0.00010  1.0000
  C   C9        1.0  0.09501  0.29096  0.00010  1.0000
  C   C10       1.0  0.04755  0.29096  0.00010  1.0000
  C   C11       1.0  0.90517  0.31913  0.00010  1.0000
  C   C12       1.0  0.88145  0.30505  0.00010  1.0000
  C   C13       1.0  0.90517  0.29096  0.00010  1.0000
  C   C14       1.0  0.95263  0.29096  0.00010  1.0000
  C   C15       1.0  0.95263  0.34731  0.00010  1.0000
  C   C16       1.0  0.97636  0.36139  0.00010  1.0000
  C   C17       1.0  0.02382  0.36139  0.00010  1.0000
  C   C18       1.0  0.04755  0.34731  0.00010  1.0000
  C   C19       1.0  0.04755  0.37548  0.00010  1.0000
  C   C20       1.0  0.02382  0.38956  0.00010  1.0000
  C   C21       1.0  0.97636  0.38956  0.00010  1.0000
  C   C22       1.0  0.95263  0.37548  0.00010  1.0000
  C   C23       1.0  0.11874  0.27687  0.00010  1.0000
  C   C24       1.0  0.16620  0.27687  0.00010  1.0000
  C   C25       1.0  0.18993  0.29096  0.00010  1.0000
  C   C26       1.0  0.16620  0.30505  0.00010  1.0000
  H   H1        1.0  0.11258  0.32956  0.00010  1.0000
  H   H2        1.0  0.02999  0.28054  0.00010  1.0000
  H   H3        1.0  0.88761  0.32956  0.00010  1.0000
  H   H4        1.0  0.97020  0.28054  0.00010  1.0000
  H   H5        1.0  0.91750  0.34731  0.00010  1.0000
  H   H6        1.0  0.08268  0.34731  0.00010  1.0000
  H   H7        1.0  0.08268  0.37548  0.00010  1.0000
  O   O1        1.0  0.04694  0.40328  0.00010  1.0000
  O   O2        1.0  0.95325  0.40328  0.00010  1.0000
  H   H8        1.0  0.91750  0.37548  0.00010  1.0000
  H   H9        1.0  0.10117  0.26645  0.00010  1.0000
  O   O3        1.0  0.18931  0.26315  0.00010  1.0000
  O   O4        1.0  0.23616  0.29096  0.00010  1.0000
  H   H10       1.0  0.18377  0.31548  0.00010  1.0000
  C   C27       1.0  0.88145  0.27687  0.00010  1.0000
  C   C28       1.0  0.83399  0.27687  0.00010  1.0000
  C   C29       1.0  0.81026  0.29096  0.00010  1.0000
  C   C30       1.0  0.83399  0.30505  0.00010  1.0000
  H   H11       1.0  0.89901  0.26645  0.00010  1.0000
  O   O5        1.0  0.81087  0.26315  0.00010  1.0000
  O   O6        1.0  0.76403  0.29096  0.00010  1.0000
  H   H12       1.0  0.81642  0.31548  0.00010  1.0000
  C   C31       1.0  0.95263  0.72020  0.00010  1.0000
  C   C32       1.0  0.97636  0.73428  0.00010  1.0000
  C   C33       1.0  0.02382  0.73428  0.00010  1.0000
  C   C34       1.0  0.04755  0.72020  0.00010  1.0000
  C   C35       1.0  0.02382  0.70611  0.00010  1.0000
  C   C36       1.0  0.97636  0.70611  0.00010  1.0000
  C   C37       1.0  0.09501  0.72020  0.00010  1.0000
  C   C38       1.0  0.11874  0.73428  0.00010  1.0000
  C   C39       1.0  0.09501  0.74837  0.00010  1.0000
  C   C40       1.0  0.04755  0.74837  0.00010  1.0000
  C   C41       1.0  0.90517  0.72020  0.00010  1.0000
  C   C42       1.0  0.88145  0.73428  0.00010  1.0000
  C   C43       1.0  0.90517  0.74837  0.00010  1.0000
  C   C44       1.0  0.95263  0.74837  0.00010  1.0000
  C   C45       1.0  0.95263  0.69202  0.00010  1.0000
  C   C46       1.0  0.97636  0.67794  0.00010  1.0000
  C   C47       1.0  0.02382  0.67794  0.00010  1.0000
  C   C48       1.0  0.04755  0.69202  0.00010  1.0000
  C   C49       1.0  0.04755  0.66386  0.00010  1.0000
  C   C50       1.0  0.02382  0.64977  0.00010  1.0000
  C   C51       1.0  0.97636  0.64977  0.00010  1.0000
  C   C52       1.0  0.95263  0.66386  0.00010  1.0000
  C   C53       1.0  0.11874  0.76246  0.00010  1.0000
  C   C54       1.0  0.16620  0.76246  0.00010  1.0000
  C   C55       1.0  0.18993  0.74837  0.00010  1.0000
  C   C56       1.0  0.16620  0.73428  0.00010  1.0000
  H   H13       1.0  0.11258  0.70977  0.00010  1.0000
  H   H14       1.0  0.02999  0.75879  0.00010  1.0000
  H   H15       1.0  0.88761  0.70977  0.00010  1.0000
  H   H16       1.0  0.97020  0.75879  0.00010  1.0000
  H   H17       1.0  0.91750  0.69202  0.00010  1.0000
  H   H18       1.0  0.08268  0.69202  0.00010  1.0000
  H   H19       1.0  0.08268  0.66386  0.00010  1.0000
  O   O7        1.0  0.04694  0.63605  0.00010  1.0000
  O   O8        1.0  0.95325  0.63605  0.00010  1.0000
  H   H20       1.0  0.91750  0.66386  0.00010  1.0000
  H   H21       1.0  0.10117  0.77288  0.00010  1.0000
  O   O9        1.0  0.18931  0.77618  0.00010  1.0000
  O   O10       1.0  0.23616  0.74837  0.00010  1.0000
  H   H22       1.0  0.18377  0.72386  0.00010  1.0000
  C   C57       1.0  0.88145  0.76246  0.00010  1.0000
  C   C58       1.0  0.83399  0.76246  0.00010  1.0000
  C   C59       1.0  0.81026  0.74837  0.00010  1.0000
  C   C60       1.0  0.83399  0.73428  0.00010  1.0000
  H   H23       1.0  0.89901  0.77288  0.00010  1.0000
  O   O11       1.0  0.81087  0.77618  0.00010  1.0000
  O   O12       1.0  0.76403  0.74837  0.00010  1.0000
  H   H24       1.0  0.81642  0.72386  0.00010  1.0000
  C   C61       1.0  0.45253  0.81913  0.00010  1.0000
  C   C62       1.0  0.47626  0.80505  0.00010  1.0000
  C   C63       1.0  0.52372  0.80505  0.00010  1.0000
  C   C64       1.0  0.54745  0.81913  0.00010  1.0000
  C   C65       1.0  0.52372  0.83322  0.00010  1.0000
  C   C66       1.0  0.47626  0.83322  0.00010  1.0000
  C   C67       1.0  0.59491  0.81913  0.00010  1.0000
  C   C68       1.0  0.61864  0.80505  0.00010  1.0000
  C   C69       1.0  0.59491  0.79096  0.00010  1.0000
  C   C70       1.0  0.54745  0.79096  0.00010  1.0000
  C   C71       1.0  0.40507  0.81913  0.00010  1.0000
  C   C72       1.0  0.38135  0.80505  0.00010  1.0000
  C   C73       1.0  0.40507  0.79096  0.00010  1.0000
  C   C74       1.0  0.45253  0.79096  0.00010  1.0000
  C   C75       1.0  0.45253  0.84730  0.00010  1.0000
  C   C76       1.0  0.47626  0.86138  0.00010  1.0000
  C   C77       1.0  0.52372  0.86138  0.00010  1.0000
  C   C78       1.0  0.54745  0.84730  0.00010  1.0000
  C   C79       1.0  0.54745  0.87547  0.00010  1.0000
  C   C80       1.0  0.52372  0.88956  0.00010  1.0000
  C   C81       1.0  0.47626  0.88956  0.00010  1.0000
  C   C82       1.0  0.45253  0.87547  0.00010  1.0000
  C   C83       1.0  0.61864  0.77687  0.00010  1.0000
  C   C84       1.0  0.66610  0.77687  0.00010  1.0000
  C   C85       1.0  0.68983  0.79096  0.00010  1.0000
  C   C86       1.0  0.66610  0.80505  0.00010  1.0000
  H   H25       1.0  0.61248  0.82956  0.00010  1.0000
  H   H26       1.0  0.52989  0.78053  0.00010  1.0000
  H   H27       1.0  0.38751  0.82956  0.00010  1.0000
  H   H28       1.0  0.47010  0.78053  0.00010  1.0000
  H   H29       1.0  0.41740  0.84730  0.00010  1.0000
  H   H30       1.0  0.58258  0.84730  0.00010  1.0000
  H   H31       1.0  0.58258  0.87547  0.00010  1.0000
  O   O13       1.0  0.54684  0.90328  0.00010  1.0000
  O   O14       1.0  0.45315  0.90328  0.00010  1.0000
  H   H32       1.0  0.41740  0.87547  0.00010  1.0000
  H   H33       1.0  0.60107  0.76645  0.00010  1.0000
  O   O15       1.0  0.68921  0.76315  0.00010  1.0000
  O   O16       1.0  0.73606  0.79096  0.00010  1.0000
  H   H34       1.0  0.68367  0.81547  0.00010  1.0000
  C   C87       1.0  0.38135  0.77687  0.00010  1.0000
  C   C88       1.0  0.33389  0.77687  0.00010  1.0000
  C   C89       1.0  0.31016  0.79096  0.00010  1.0000
  C   C90       1.0  0.33389  0.80505  0.00010  1.0000
  H   H35       1.0  0.39891  0.76645  0.00010  1.0000
  O   O17       1.0  0.31077  0.76315  0.00010  1.0000
  O   O18       1.0  0.26393  0.79096  0.00010  1.0000
  H   H36       1.0  0.31632  0.81547  0.00010  1.0000
  C   C91       1.0  0.45253  0.22020  0.00010  1.0000
  C   C92       1.0  0.47626  0.23428  0.00010  1.0000
  C   C93       1.0  0.52372  0.23428  0.00010  1.0000
  C   C94       1.0  0.54745  0.22020  0.00010  1.0000
  C   C95       1.0  0.52372  0.20611  0.00010  1.0000
  C   C96       1.0  0.47626  0.20611  0.00010  1.0000
  C   C97       1.0  0.59491  0.22020  0.00010  1.0000
  C   C98       1.0  0.61864  0.23428  0.00010  1.0000
  C   C99       1.0  0.59491  0.24837  0.00010  1.0000
  C   C100      1.0  0.54745  0.24837  0.00010  1.0000
  C   C101      1.0  0.40507  0.22020  0.00010  1.0000
  C   C102      1.0  0.38135  0.23428  0.00010  1.0000
  C   C103      1.0  0.40507  0.24837  0.00010  1.0000
  C   C104      1.0  0.45253  0.24837  0.00010  1.0000
  C   C105      1.0  0.45253  0.19202  0.00010  1.0000
  C   C106      1.0  0.47626  0.17795  0.00010  1.0000
  C   C107      1.0  0.52372  0.17795  0.00010  1.0000
  C   C108      1.0  0.54745  0.19202  0.00010  1.0000
  C   C109      1.0  0.54745  0.16386  0.00010  1.0000
  C   C110      1.0  0.52372  0.14977  0.00010  1.0000
  C   C111      1.0  0.47626  0.14977  0.00010  1.0000
  C   C112      1.0  0.45253  0.16386  0.00010  1.0000
  C   C113      1.0  0.61864  0.26246  0.00010  1.0000
  C   C114      1.0  0.66610  0.26246  0.00010  1.0000
  C   C115      1.0  0.68983  0.24837  0.00010  1.0000
  C   C116      1.0  0.66610  0.23428  0.00010  1.0000
  H   H37       1.0  0.61248  0.20977  0.00010  1.0000
  H   H38       1.0  0.52989  0.25879  0.00010  1.0000
  H   H39       1.0  0.38751  0.20977  0.00010  1.0000
  H   H40       1.0  0.47010  0.25879  0.00010  1.0000
  H   H41       1.0  0.41740  0.19202  0.00010  1.0000
  H   H42       1.0  0.58258  0.19202  0.00010  1.0000
  H   H43       1.0  0.58258  0.16386  0.00010  1.0000
  O   O19       1.0  0.54684  0.13605  0.00010  1.0000
  O   O20       1.0  0.45315  0.13605  0.00010  1.0000
  H   H44       1.0  0.41740  0.16386  0.00010  1.0000
  H   H45       1.0  0.60107  0.27288  0.00010  1.0000
  O   O21       1.0  0.68921  0.27618  0.00010  1.0000
  O   O22       1.0  0.73606  0.24837  0.00010  1.0000
  H   H46       1.0  0.68367  0.22386  0.00010  1.0000
  C   C117      1.0  0.38135  0.26246  0.00010  1.0000
  C   C118      1.0  0.33389  0.26246  0.00010  1.0000
  C   C119      1.0  0.31016  0.24837  0.00010  1.0000
  C   C120      1.0  0.33389  0.23428  0.00010  1.0000
  H   H47       1.0  0.39891  0.27288  0.00010  1.0000
  O   O23       1.0  0.31077  0.27618  0.00010  1.0000
  O   O24       1.0  0.26393  0.24837  0.00010  1.0000
  H   H48       1.0  0.31632  0.22386  0.00010  1.0000
  C   C121      1.0  0.99990  0.50319  0.29945  1.0000
  C   C122      1.0  0.99990  0.51144  0.36891  1.0000
  C   C123      1.0  0.99990  0.52788  0.36892  1.0000
  C   C124      1.0  0.00010  0.53614  0.29947  1.0000
  C   C125      1.0  0.99990  0.52752  0.23210  1.0000
  C   C126      1.0  0.99990  0.51180  0.23209  1.0000
  C   C127      1.0  0.99990  0.50689  0.15638  1.0000
  N   N1        1.0  0.99990  0.51966  0.10742  1.0000
  C   C128      1.0  0.99990  0.53244  0.15639  1.0000
  N   N2        1.0  0.00010  0.54750  0.13727  1.0000
  C   C129      1.0  0.00010  0.55139  0.06314  1.0000
  N   N3        1.0  0.00010  0.54143  0.00010  1.0000
  C   C130      1.0  0.99990  0.55138  0.93744  1.0000
  C   C131      1.0  0.00010  0.56677  0.96161  1.0000
  C   C132      1.0  0.00010  0.56677  0.03895  1.0000
  N   N4        1.0  0.99990  0.51967  0.89316  1.0000
  C   C133      1.0  0.99990  0.53243  0.84418  1.0000
  N   N5        1.0  0.99990  0.54750  0.86331  1.0000
  C   C134      1.0  0.99990  0.52752  0.76847  1.0000
  C   C135      1.0  0.00010  0.51180  0.76848  1.0000
  C   C136      1.0  0.00010  0.50689  0.84419  1.0000
  C   C137      1.0  0.00010  0.58047  0.08132  1.0000
  C   C138      1.0  0.00010  0.59457  0.04065  1.0000
  C   C139      1.0  0.00010  0.59457  0.95978  1.0000
  C   C140      1.0  0.00010  0.58045  0.91918  1.0000
  C   C141      1.0  0.00010  0.50319  0.70111  1.0000
  C   C142      1.0  0.00010  0.51144  0.63167  1.0000
  C   C143      1.0  0.99990  0.52787  0.63167  1.0000
  C   C144      1.0  0.99990  0.53613  0.70110  1.0000
  N   N6        1.0  0.99990  0.49790  0.00010  1.0000
  C   C145      1.0  0.00010  0.48795  0.93743  1.0000
  N   N7        1.0  0.00010  0.49183  0.86331  1.0000
  C   C146      1.0  0.00010  0.47256  0.96158  1.0000
  C   C147      1.0  0.99990  0.47256  0.03893  1.0000
  C   C148      1.0  0.99990  0.48795  0.06312  1.0000
  C   C149      1.0  0.99990  0.45887  0.08130  1.0000
  C   C150      1.0  0.00010  0.44476  0.04064  1.0000
  C   C151      1.0  0.00010  0.44477  0.95976  1.0000
  C   C152      1.0  0.00010  0.45888  0.91915  1.0000
  N   N8        1.0  0.99990  0.49183  0.13724  1.0000
  H   H49       1.0  0.99990  0.49210  0.29855  1.0000
  O   O25       1.0  0.99990  0.50461  0.42752  1.0000
  O   O26       1.0  0.00010  0.53470  0.42755  1.0000
  H   H50       1.0  0.00010  0.54722  0.29858  1.0000
  H   H51       1.0  0.00010  0.58029  0.13589  1.0000
  O   O27       1.0  0.00010  0.60649  0.07424  1.0000
  O   O28       1.0  0.00010  0.60647  0.92614  1.0000
  H   H52       1.0  0.00010  0.58026  0.86462  1.0000
  H   H53       1.0  0.00010  0.49210  0.70201  1.0000
  O   O29       1.0  0.00010  0.50461  0.57306  1.0000
  O   O30       1.0  0.99990  0.53470  0.57305  1.0000
  H   H54       1.0  0.99990  0.54722  0.70198  1.0000
  H   H55       1.0  0.99990  0.45905  0.13587  1.0000
  O   O31       1.0  0.00010  0.43285  0.07423  1.0000
  O   O32       1.0  0.00010  0.43286  0.92613  1.0000
  H   H56       1.0  0.00010  0.45907  0.86459  1.0000
  Ni  Ni1       1.0  0.99990  0.51966  0.00010  1.0000
  C   C153      1.0  0.49961  0.00319  0.29945  1.0000
  C   C154      1.0  0.49972  0.01144  0.36891  1.0000
  C   C155      1.0  0.49986  0.02788  0.36892  1.0000
  C   C156      1.0  0.49994  0.03613  0.29947  1.0000
  C   C157      1.0  0.49985  0.02752  0.23210  1.0000
  C   C158      1.0  0.49966  0.01180  0.23209  1.0000
  C   C159      1.0  0.49961  0.00689  0.15638  1.0000
  N   N9        1.0  0.49975  0.01966  0.10742  1.0000
  C   C160      1.0  0.49990  0.03243  0.15639  1.0000
  N   N10       1.0  0.50010  0.04750  0.13727  1.0000
  C   C161      1.0  0.50007  0.05139  0.06314  1.0000
  N   N11       1.0  0.49993  0.04143  0.00010  1.0000
  C   C162      1.0  0.49986  0.05138  0.93744  1.0000
  C   C163      1.0  0.50000  0.06677  0.96161  1.0000
  C   C164      1.0  0.50011  0.06677  0.03896  1.0000
  N   N12       1.0  0.49984  0.01966  0.89317  1.0000
  C   C165      1.0  0.49972  0.03243  0.84419  1.0000
  N   N13       1.0  0.49966  0.04750  0.86331  1.0000
  C   C166      1.0  0.49980  0.02752  0.76848  1.0000
  C   C167      1.0  0.49998  0.01180  0.76848  1.0000
  C   C168      1.0  0.50002  0.00689  0.84419  1.0000
  C   C169      1.0  0.50018  0.08046  0.08132  1.0000
  C   C170      1.0  0.50017  0.09457  0.04066  1.0000
  C   C171      1.0  0.50014  0.09457  0.95979  1.0000
  C   C172      1.0  0.50002  0.08045  0.91918  1.0000
  C   C173      1.0  0.50005  0.00319  0.70112  1.0000
  C   C174      1.0  0.49992  0.01144  0.63167  1.0000
  C   C175      1.0  0.49978  0.02787  0.63167  1.0000
  C   C176      1.0  0.49972  0.03613  0.70111  1.0000
  N   N14       1.0  0.49988  0.99790  0.00010  1.0000
  C   C177      1.0  0.50007  0.98795  0.93743  1.0000
  N   N15       1.0  0.50022  0.99183  0.86331  1.0000
  C   C178      1.0  0.50006  0.97256  0.96158  1.0000
  C   C179      1.0  0.49986  0.97256  0.03893  1.0000
  C   C180      1.0  0.49973  0.98795  0.06312  1.0000
  C   C181      1.0  0.49986  0.95887  0.08130  1.0000
  C   C182      1.0  0.50005  0.94476  0.04064  1.0000
  C   C183      1.0  0.50018  0.94476  0.95976  1.0000
  C   C184      1.0  0.50019  0.95888  0.91915  1.0000
  N   N16       1.0  0.49951  0.99183  0.13724  1.0000
  H   H57       1.0  0.49952  0.99210  0.29855  1.0000
  O   O33       1.0  0.49968  0.00461  0.42752  1.0000
  O   O34       1.0  0.49992  0.03470  0.42755  1.0000
  H   H58       1.0  0.50004  0.04722  0.29859  1.0000
  H   H59       1.0  0.50022  0.08029  0.13589  1.0000
  O   O35       1.0  0.50019  0.10649  0.07424  1.0000
  O   O36       1.0  0.50021  0.10647  0.92614  1.0000
  H   H60       1.0  0.49998  0.08026  0.86462  1.0000
  H   H61       1.0  0.50016  0.99210  0.70201  1.0000
  O   O37       1.0  0.49991  0.00461  0.57306  1.0000
  O   O38       1.0  0.49969  0.03470  0.57306  1.0000
  H   H62       1.0  0.49963  0.04722  0.70199  1.0000
  H   H63       1.0  0.49976  0.95905  0.13587  1.0000
  O   O39       1.0  0.50012  0.93285  0.07423  1.0000
  O   O40       1.0  0.50028  0.93285  0.92613  1.0000
  H   H64       1.0  0.50030  0.95906  0.86459  1.0000
  Ni  Ni2       1.0  0.49978  0.01966  0.00010  1.0000
  Zn  Zn1       1.0  0.00010  0.41807  0.00010  1.0000
  Zn  Zn2       1.0  0.00010  0.62126  0.00010  1.0000
  Zn  Zn3       1.0  0.50010  0.91807  0.00010  1.0000
  Zn  Zn4       1.0  0.50010  0.12126  0.00010  1.0000
  Cu  Cu1       1.0  0.25000  0.26967  0.00010  1.0000
  Cu  Cu2       1.0  0.75010  0.76966  0.00010  1.0000
  Cu  Cu3       1.0  0.25000  0.76966  0.00010  1.0000
  Cu  Cu4       1.0  0.75010  0.26967  0.00010  1.0000
  Cu  Cu5       1.0  0.99990  0.51966  0.50029  1.0000
  Cu  Cu6       1.0  0.49980  0.01966  0.50030  1.0000
