data_image0
_chemical_formula_structural       C26H7O2H2O2HC4HO2HC26H7O2H2O2HC4HO2HC26H7O2H2O2HC4HO2HC26H7O2H2O2HC4HO2HC7NCNCNC3NCNC11NCNC7NH8C16HO2H2O2H2O2H2O2HNiC7NCNCNC3NCNC11NCNC7NH8C16HO2H2O2H2O2H2O2HNiZn4Cu6
_chemical_formula_sum              "C216 H80 O40 N16 Ni2 Zn4 Cu6"
_cell_length_a       32.4521
_cell_length_b       106.35
_cell_length_c       25.071
_cell_angle_alpha    90.2968
_cell_angle_beta     90
_cell_angle_gamma    90

_space_group_name_H-M_alt    "P 1"
_space_group_IT_number       1

loop_
  _space_group_symop_operation_xyz
  'x, y, z'

loop_
  _atom_site_type_symbol
  _atom_site_label
  _atom_site_symmetry_multiplicity
  _atom_site_fract_x
  _atom_site_fract_y
  _atom_site_fract_z
  _atom_site_occupancy
  C   C1        1.0  0.95264  0.29660  0.00469  1.0000
  C   C2        1.0  0.97637  0.28406  0.00470  1.0000
  C   C3        1.0  0.02382  0.28406  0.00470  1.0000
  C   C4        1.0  0.04755  0.29660  0.00469  1.0000
  C   C5        1.0  0.02382  0.30914  0.00468  1.0000
  C   C6        1.0  0.97637  0.30914  0.00468  1.0000
  C   C7        1.0  0.09500  0.29660  0.00469  1.0000
  C   C8        1.0  0.11873  0.28406  0.00470  1.0000
  C   C9        1.0  0.09500  0.27152  0.00471  1.0000
  C   C10       1.0  0.04755  0.27152  0.00471  1.0000
  C   C11       1.0  0.90518  0.29660  0.00469  1.0000
  C   C12       1.0  0.88146  0.28406  0.00470  1.0000
  C   C13       1.0  0.90518  0.27152  0.00471  1.0000
  C   C14       1.0  0.95264  0.27152  0.00471  1.0000
  C   C15       1.0  0.95264  0.32168  0.00467  1.0000
  C   C16       1.0  0.97637  0.33422  0.00466  1.0000
  C   C17       1.0  0.02382  0.33422  0.00466  1.0000
  C   C18       1.0  0.04755  0.32168  0.00467  1.0000
  C   C19       1.0  0.04755  0.34676  0.00465  1.0000
  C   C20       1.0  0.02382  0.35930  0.00464  1.0000
  C   C21       1.0  0.97637  0.35930  0.00464  1.0000
  C   C22       1.0  0.95264  0.34676  0.00465  1.0000
  C   C23       1.0  0.11873  0.25897  0.00472  1.0000
  C   C24       1.0  0.16618  0.25897  0.00472  1.0000
  C   C25       1.0  0.18991  0.27152  0.00471  1.0000
  C   C26       1.0  0.16618  0.28406  0.00470  1.0000
  H   H1        1.0  0.11257  0.30589  0.00468  1.0000
  H   H2        1.0  0.02998  0.26224  0.00471  1.0000
  H   H3        1.0  0.88762  0.30589  0.00468  1.0000
  H   H4        1.0  0.97020  0.26224  0.00471  1.0000
  H   H5        1.0  0.91751  0.32168  0.00467  1.0000
  H   H6        1.0  0.08268  0.32168  0.00467  1.0000
  H   H7        1.0  0.08268  0.34676  0.00465  1.0000
  O   O1        1.0  0.04693  0.37152  0.00463  1.0000
  O   O2        1.0  0.95325  0.37152  0.00463  1.0000
  H   H8        1.0  0.91751  0.34676  0.00465  1.0000
  H   H9        1.0  0.10116  0.24969  0.00472  1.0000
  O   O3        1.0  0.18929  0.24676  0.00473  1.0000
  O   O4        1.0  0.23613  0.27152  0.00471  1.0000
  H   H10       1.0  0.18375  0.29334  0.00469  1.0000
  C   C27       1.0  0.88146  0.25897  0.00472  1.0000
  C   C28       1.0  0.83400  0.25897  0.00472  1.0000
  C   C29       1.0  0.81027  0.27152  0.00471  1.0000
  C   C30       1.0  0.83400  0.28406  0.00470  1.0000
  H   H11       1.0  0.89902  0.24969  0.00472  1.0000
  O   O5        1.0  0.81089  0.24676  0.00473  1.0000
  O   O6        1.0  0.76405  0.27152  0.00471  1.0000
  H   H12       1.0  0.81644  0.29334  0.00469  1.0000
  C   C31       1.0  0.95264  0.70852  0.00520  1.0000
  C   C32       1.0  0.97637  0.72106  0.00519  1.0000
  C   C33       1.0  0.02382  0.72106  0.00519  1.0000
  C   C34       1.0  0.04755  0.70852  0.00520  1.0000
  C   C35       1.0  0.02382  0.69598  0.00521  1.0000
  C   C36       1.0  0.97637  0.69598  0.00521  1.0000
  C   C37       1.0  0.09500  0.70852  0.00520  1.0000
  C   C38       1.0  0.11873  0.72106  0.00519  1.0000
  C   C39       1.0  0.09500  0.73360  0.00517  1.0000
  C   C40       1.0  0.04755  0.73360  0.00517  1.0000
  C   C41       1.0  0.90518  0.70852  0.00520  1.0000
  C   C42       1.0  0.88146  0.72106  0.00519  1.0000
  C   C43       1.0  0.90518  0.73360  0.00517  1.0000
  C   C44       1.0  0.95264  0.73360  0.00517  1.0000
  C   C45       1.0  0.95264  0.68344  0.00522  1.0000
  C   C46       1.0  0.97637  0.67090  0.00523  1.0000
  C   C47       1.0  0.02382  0.67090  0.00523  1.0000
  C   C48       1.0  0.04755  0.68344  0.00522  1.0000
  C   C49       1.0  0.04755  0.65836  0.00524  1.0000
  C   C50       1.0  0.02382  0.64582  0.00525  1.0000
  C   C51       1.0  0.97637  0.64582  0.00525  1.0000
  C   C52       1.0  0.95264  0.65836  0.00524  1.0000
  C   C53       1.0  0.11873  0.74615  0.00516  1.0000
  C   C54       1.0  0.16618  0.74615  0.00516  1.0000
  C   C55       1.0  0.18991  0.73360  0.00517  1.0000
  C   C56       1.0  0.16618  0.72106  0.00519  1.0000
  H   H13       1.0  0.11257  0.69923  0.00520  1.0000
  H   H14       1.0  0.02998  0.74288  0.00517  1.0000
  H   H15       1.0  0.88762  0.69923  0.00520  1.0000
  H   H16       1.0  0.97020  0.74288  0.00517  1.0000
  H   H17       1.0  0.91751  0.68344  0.00522  1.0000
  H   H18       1.0  0.08268  0.68344  0.00522  1.0000
  H   H19       1.0  0.08268  0.65836  0.00524  1.0000
  O   O7        1.0  0.04693  0.63360  0.00526  1.0000
  O   O8        1.0  0.95325  0.63360  0.00526  1.0000
  H   H20       1.0  0.91751  0.65836  0.00524  1.0000
  H   H21       1.0  0.10116  0.75543  0.00516  1.0000
  O   O9        1.0  0.18929  0.75836  0.00515  1.0000
  O   O10       1.0  0.23613  0.73360  0.00517  1.0000
  H   H22       1.0  0.18375  0.71178  0.00519  1.0000
  C   C57       1.0  0.88146  0.74615  0.00516  1.0000
  C   C58       1.0  0.83400  0.74615  0.00516  1.0000
  C   C59       1.0  0.81027  0.73360  0.00517  1.0000
  C   C60       1.0  0.83400  0.72106  0.00519  1.0000
  H   H23       1.0  0.89902  0.75543  0.00516  1.0000
  O   O11       1.0  0.81089  0.75836  0.00515  1.0000
  O   O12       1.0  0.76405  0.73360  0.00517  1.0000
  H   H24       1.0  0.81644  0.71178  0.00519  1.0000
  C   C61       1.0  0.45254  0.79659  0.00475  1.0000
  C   C62       1.0  0.47627  0.78406  0.00476  1.0000
  C   C63       1.0  0.52372  0.78406  0.00476  1.0000
  C   C64       1.0  0.54745  0.79659  0.00475  1.0000
  C   C65       1.0  0.52372  0.80914  0.00475  1.0000
  C   C66       1.0  0.47627  0.80914  0.00475  1.0000
  C   C67       1.0  0.59490  0.79659  0.00475  1.0000
  C   C68       1.0  0.61863  0.78406  0.00476  1.0000
  C   C69       1.0  0.59490  0.77152  0.00476  1.0000
  C   C70       1.0  0.54745  0.77152  0.00476  1.0000
  C   C71       1.0  0.40508  0.79659  0.00475  1.0000
  C   C72       1.0  0.38136  0.78406  0.00476  1.0000
  C   C73       1.0  0.40508  0.77152  0.00476  1.0000
  C   C74       1.0  0.45254  0.77152  0.00476  1.0000
  C   C75       1.0  0.45254  0.82168  0.00474  1.0000
  C   C76       1.0  0.47627  0.83422  0.00473  1.0000
  C   C77       1.0  0.52372  0.83422  0.00473  1.0000
  C   C78       1.0  0.54745  0.82168  0.00474  1.0000
  C   C79       1.0  0.54745  0.84676  0.00473  1.0000
  C   C80       1.0  0.52372  0.85930  0.00472  1.0000
  C   C81       1.0  0.47627  0.85930  0.00472  1.0000
  C   C82       1.0  0.45254  0.84676  0.00473  1.0000
  C   C83       1.0  0.61863  0.75897  0.00477  1.0000
  C   C84       1.0  0.66608  0.75897  0.00477  1.0000
  C   C85       1.0  0.68981  0.77152  0.00476  1.0000
  C   C86       1.0  0.66608  0.78406  0.00476  1.0000
  H   H25       1.0  0.61247  0.80588  0.00475  1.0000
  H   H26       1.0  0.52988  0.76224  0.00477  1.0000
  H   H27       1.0  0.38752  0.80588  0.00475  1.0000
  H   H28       1.0  0.47010  0.76224  0.00477  1.0000
  H   H29       1.0  0.41741  0.82168  0.00474  1.0000
  H   H30       1.0  0.58258  0.82168  0.00474  1.0000
  H   H31       1.0  0.58258  0.84676  0.00473  1.0000
  O   O13       1.0  0.54683  0.87152  0.00472  1.0000
  O   O14       1.0  0.45315  0.87152  0.00472  1.0000
  H   H32       1.0  0.41741  0.84676  0.00473  1.0000
  H   H33       1.0  0.60106  0.74969  0.00478  1.0000
  O   O15       1.0  0.68919  0.74676  0.00478  1.0000
  O   O16       1.0  0.73603  0.77152  0.00476  1.0000
  H   H34       1.0  0.68365  0.79334  0.00475  1.0000
  C   C87       1.0  0.38136  0.75897  0.00477  1.0000
  C   C88       1.0  0.33390  0.75897  0.00477  1.0000
  C   C89       1.0  0.31017  0.77152  0.00476  1.0000
  C   C90       1.0  0.33390  0.78406  0.00476  1.0000
  H   H35       1.0  0.39892  0.74969  0.00478  1.0000
  O   O17       1.0  0.31079  0.74676  0.00478  1.0000
  O   O18       1.0  0.26395  0.77152  0.00476  1.0000
  H   H36       1.0  0.31634  0.79334  0.00475  1.0000
  C   C91       1.0  0.45254  0.20853  0.00522  1.0000
  C   C92       1.0  0.47627  0.22106  0.00521  1.0000
  C   C93       1.0  0.52372  0.22106  0.00521  1.0000
  C   C94       1.0  0.54745  0.20853  0.00522  1.0000
  C   C95       1.0  0.52372  0.19598  0.00524  1.0000
  C   C96       1.0  0.47627  0.19598  0.00524  1.0000
  C   C97       1.0  0.59490  0.20853  0.00522  1.0000
  C   C98       1.0  0.61863  0.22106  0.00521  1.0000
  C   C99       1.0  0.59490  0.23361  0.00519  1.0000
  C   C100      1.0  0.54745  0.23361  0.00519  1.0000
  C   C101      1.0  0.40508  0.20853  0.00522  1.0000
  C   C102      1.0  0.38136  0.22106  0.00521  1.0000
  C   C103      1.0  0.40508  0.23361  0.00519  1.0000
  C   C104      1.0  0.45254  0.23361  0.00519  1.0000
  C   C105      1.0  0.45254  0.18344  0.00525  1.0000
  C   C106      1.0  0.47627  0.17091  0.00527  1.0000
  C   C107      1.0  0.52372  0.17091  0.00527  1.0000
  C   C108      1.0  0.54745  0.18344  0.00525  1.0000
  C   C109      1.0  0.54745  0.15836  0.00528  1.0000
  C   C110      1.0  0.52372  0.14582  0.00530  1.0000
  C   C111      1.0  0.47627  0.14582  0.00530  1.0000
  C   C112      1.0  0.45254  0.15836  0.00528  1.0000
  C   C113      1.0  0.61863  0.24615  0.00518  1.0000
  C   C114      1.0  0.66608  0.24615  0.00518  1.0000
  C   C115      1.0  0.68981  0.23361  0.00519  1.0000
  C   C116      1.0  0.66608  0.22106  0.00521  1.0000
  H   H37       1.0  0.61247  0.19924  0.00523  1.0000
  H   H38       1.0  0.52988  0.24289  0.00518  1.0000
  H   H39       1.0  0.38752  0.19924  0.00523  1.0000
  H   H40       1.0  0.47010  0.24289  0.00518  1.0000
  H   H41       1.0  0.41741  0.18344  0.00525  1.0000
  H   H42       1.0  0.58258  0.18344  0.00525  1.0000
  H   H43       1.0  0.58258  0.15836  0.00528  1.0000
  O   O19       1.0  0.54683  0.13361  0.00532  1.0000
  O   O20       1.0  0.45315  0.13361  0.00532  1.0000
  H   H44       1.0  0.41741  0.15836  0.00528  1.0000
  H   H45       1.0  0.60106  0.25543  0.00516  1.0000
  O   O21       1.0  0.68919  0.25836  0.00516  1.0000
  O   O22       1.0  0.73603  0.23361  0.00519  1.0000
  H   H46       1.0  0.68365  0.21178  0.00522  1.0000
  C   C117      1.0  0.38136  0.24615  0.00518  1.0000
  C   C118      1.0  0.33390  0.24615  0.00518  1.0000
  C   C119      1.0  0.31017  0.23361  0.00519  1.0000
  C   C120      1.0  0.33390  0.22106  0.00521  1.0000
  H   H47       1.0  0.39892  0.25543  0.00516  1.0000
  O   O23       1.0  0.31079  0.25836  0.00516  1.0000
  O   O24       1.0  0.26395  0.23361  0.00519  1.0000
  H   H48       1.0  0.31634  0.21178  0.00522  1.0000
  C   C121      1.0  0.00010  0.44762  0.94261  1.0000
  C   C122      1.0  0.00010  0.43510  0.97381  1.0000
  C   C123      1.0  0.00010  0.43513  0.03566  1.0000
  C   C124      1.0  0.00010  0.44767  0.06685  1.0000
  C   C125      1.0  0.00010  0.45985  0.03454  1.0000
  C   C126      1.0  0.00010  0.45982  0.97490  1.0000
  C   C127      1.0  0.00010  0.47351  0.95621  1.0000
  N   N1        1.0  0.00010  0.48216  0.00485  1.0000
  C   C128      1.0  0.00010  0.47355  0.05339  1.0000
  N   N2        1.0  0.00010  0.47758  0.11117  1.0000
  C   C129      1.0  0.00010  0.49118  0.12821  1.0000
  N   N3        1.0  0.00010  0.50263  0.09172  1.0000
  C   C130      1.0  0.00010  0.51408  0.12831  1.0000
  C   C131      1.0  0.00010  0.50966  0.18637  1.0000
  C   C132      1.0  0.00010  0.49562  0.18636  1.0000
  N   N4        1.0  0.00010  0.52300  0.00532  1.0000
  C   C133      1.0  0.00010  0.53162  0.05390  1.0000
  N   N5        1.0  0.00010  0.52766  0.11146  1.0000
  C   C134      1.0  0.00010  0.54532  0.03517  1.0000
  C   C135      1.0  0.00010  0.54531  0.97560  1.0000
  C   C136      1.0  0.00010  0.53161  0.95678  1.0000
  C   C137      1.0  0.00010  0.48801  0.23801  1.0000
  C   C138      1.0  0.00010  0.49533  0.29117  1.0000
  C   C139      1.0  0.00010  0.50990  0.29123  1.0000
  C   C140      1.0  0.00010  0.51726  0.23811  1.0000
  C   C141      1.0  0.00010  0.55749  0.94332  1.0000
  C   C142      1.0  0.00010  0.57003  0.97442  1.0000
  C   C143      1.0  0.00010  0.57003  0.03620  1.0000
  C   C144      1.0  0.00010  0.55751  0.06740  1.0000
  N   N6        1.0  0.00010  0.50253  0.91842  1.0000
  C   C145      1.0  0.00010  0.51398  0.88198  1.0000
  N   N7        1.0  0.00010  0.52759  0.89909  1.0000
  C   C146      1.0  0.00010  0.50954  0.82381  1.0000
  C   C147      1.0  0.00010  0.49549  0.82374  1.0000
  C   C148      1.0  0.00010  0.49107  0.88180  1.0000
  C   C149      1.0  0.00010  0.48789  0.77196  1.0000
  C   C150      1.0  0.00010  0.49524  0.71882  1.0000
  C   C151      1.0  0.00010  0.50982  0.71894  1.0000
  C   C152      1.0  0.00010  0.51716  0.77219  1.0000
  N   N8        1.0  0.00010  0.47747  0.89861  1.0000
  H   H49       1.0  0.00010  0.44776  0.89734  1.0000
  H   H50       1.0  0.00010  0.44784  0.11216  1.0000
  H   H51       1.0  0.00010  0.47733  0.23732  1.0000
  H   H52       1.0  0.00010  0.52793  0.23752  1.0000
  H   H53       1.0  0.00010  0.55734  0.89807  1.0000
  H   H54       1.0  0.00010  0.55736  0.11267  1.0000
  H   H55       1.0  0.00010  0.47721  0.77252  1.0000
  H   H56       1.0  0.00010  0.52784  0.77291  1.0000
  C   C153      1.0  0.00010  0.48809  0.66559  1.0000
  C   C154      1.0  0.00010  0.49535  0.61258  1.0000
  C   C155      1.0  0.00010  0.50977  0.61268  1.0000
  C   C156      1.0  0.00010  0.51700  0.66580  1.0000
  C   C157      1.0  0.00010  0.42254  0.94346  1.0000
  C   C158      1.0  0.00010  0.41004  0.97422  1.0000
  C   C159      1.0  0.00010  0.41006  0.03536  1.0000
  C   C160      1.0  0.00010  0.42258  0.06606  1.0000
  C   C161      1.0  0.00010  0.48815  0.34436  1.0000
  C   C162      1.0  0.00010  0.49539  0.39742  1.0000
  C   C163      1.0  0.00010  0.50980  0.39744  1.0000
  C   C164      1.0  0.00010  0.51704  0.34442  1.0000
  C   C165      1.0  0.00010  0.58257  0.94399  1.0000
  C   C166      1.0  0.00010  0.59507  0.97462  1.0000
  C   C167      1.0  0.00010  0.59508  0.03570  1.0000
  C   C168      1.0  0.00010  0.58258  0.06646  1.0000
  H   H57       1.0  0.00010  0.47742  0.66541  1.0000
  O   O25       1.0  0.00010  0.48835  0.56077  1.0000
  O   O26       1.0  0.00010  0.51679  0.56096  1.0000
  H   H58       1.0  0.00010  0.52768  0.66573  1.0000
  H   H59       1.0  0.00010  0.42250  0.89818  1.0000
  O   O27       1.0  0.00010  0.39782  0.94453  1.0000
  O   O28       1.0  0.00010  0.39786  0.06517  1.0000
  H   H60       1.0  0.00010  0.42256  0.11135  1.0000
  H   H61       1.0  0.00010  0.47749  0.34447  1.0000
  O   O29       1.0  0.00010  0.48837  0.44918  1.0000
  O   O30       1.0  0.00010  0.51678  0.44921  1.0000
  H   H62       1.0  0.00010  0.52771  0.34457  1.0000
  H   H63       1.0  0.00010  0.58260  0.89879  1.0000
  O   O31       1.0  0.00010  0.60727  0.94491  1.0000
  O   O32       1.0  0.00010  0.60728  0.06536  1.0000
  H   H64       1.0  0.00010  0.58261  0.11171  1.0000
  Ni  Ni1       1.0  0.00010  0.50258  0.00508  1.0000
  C   C169      1.0  0.50000  0.94762  0.94266  1.0000
  C   C170      1.0  0.50000  0.93510  0.97386  1.0000
  C   C171      1.0  0.50000  0.93513  0.03571  1.0000
  C   C172      1.0  0.50000  0.94767  0.06690  1.0000
  C   C173      1.0  0.50000  0.95985  0.03459  1.0000
  C   C174      1.0  0.50000  0.95982  0.97495  1.0000
  C   C175      1.0  0.50000  0.97351  0.95625  1.0000
  N   N9        1.0  0.50000  0.98216  0.00490  1.0000
  C   C176      1.0  0.50000  0.97356  0.05344  1.0000
  N   N10       1.0  0.50000  0.97758  0.11122  1.0000
  C   C177      1.0  0.50000  0.99118  0.12826  1.0000
  N   N11       1.0  0.50000  0.00263  0.09176  1.0000
  C   C178      1.0  0.50000  0.01408  0.12836  1.0000
  C   C179      1.0  0.50000  0.00967  0.18642  1.0000
  C   C180      1.0  0.50000  0.99562  0.18641  1.0000
  N   N12       1.0  0.50000  0.02301  0.00536  1.0000
  C   C181      1.0  0.50000  0.03163  0.05394  1.0000
  N   N13       1.0  0.50000  0.02766  0.11151  1.0000
  C   C182      1.0  0.50000  0.04532  0.03522  1.0000
  C   C183      1.0  0.50000  0.04531  0.97564  1.0000
  C   C184      1.0  0.50000  0.03161  0.95683  1.0000
  C   C185      1.0  0.50000  0.98801  0.23806  1.0000
  C   C186      1.0  0.50000  0.99533  0.29122  1.0000
  C   C187      1.0  0.50000  0.00990  0.29127  1.0000
  C   C188      1.0  0.50000  0.01726  0.23816  1.0000
  C   C189      1.0  0.50000  0.05749  0.94336  1.0000
  C   C190      1.0  0.50000  0.07003  0.97446  1.0000
  C   C191      1.0  0.50000  0.07003  0.03625  1.0000
  C   C192      1.0  0.50000  0.05751  0.06745  1.0000
  N   N14       1.0  0.50000  0.00253  0.91847  1.0000
  C   C193      1.0  0.50000  0.01398  0.88203  1.0000
  N   N15       1.0  0.50000  0.02759  0.89913  1.0000
  C   C194      1.0  0.50000  0.00954  0.82385  1.0000
  C   C195      1.0  0.50000  0.99549  0.82378  1.0000
  C   C196      1.0  0.50000  0.99107  0.88184  1.0000
  C   C197      1.0  0.50000  0.98789  0.77201  1.0000
  C   C198      1.0  0.50000  0.99524  0.71887  1.0000
  C   C199      1.0  0.50000  0.00982  0.71898  1.0000
  C   C200      1.0  0.50000  0.01716  0.77223  1.0000
  N   N16       1.0  0.50000  0.97747  0.89865  1.0000
  H   H65       1.0  0.50000  0.94776  0.89739  1.0000
  H   H66       1.0  0.50000  0.94784  0.11221  1.0000
  H   H67       1.0  0.50000  0.97734  0.23737  1.0000
  H   H68       1.0  0.50000  0.02793  0.23757  1.0000
  H   H69       1.0  0.50000  0.05734  0.89811  1.0000
  H   H70       1.0  0.50000  0.05736  0.11271  1.0000
  H   H71       1.0  0.50000  0.97721  0.77257  1.0000
  H   H72       1.0  0.50000  0.02784  0.77295  1.0000
  C   C201      1.0  0.50000  0.98809  0.66564  1.0000
  C   C202      1.0  0.50000  0.99535  0.61262  1.0000
  C   C203      1.0  0.50000  0.00977  0.61273  1.0000
  C   C204      1.0  0.50000  0.01700  0.66585  1.0000
  C   C205      1.0  0.50000  0.92254  0.94351  1.0000
  C   C206      1.0  0.50000  0.91004  0.97427  1.0000
  C   C207      1.0  0.50000  0.91006  0.03541  1.0000
  C   C208      1.0  0.50000  0.92258  0.06611  1.0000
  C   C209      1.0  0.50000  0.98816  0.34441  1.0000
  C   C210      1.0  0.50000  0.99539  0.39747  1.0000
  C   C211      1.0  0.50000  0.00980  0.39749  1.0000
  C   C212      1.0  0.50000  0.01705  0.34447  1.0000
  C   C213      1.0  0.50000  0.08257  0.94404  1.0000
  C   C214      1.0  0.50000  0.09507  0.97467  1.0000
  C   C215      1.0  0.50000  0.09508  0.03575  1.0000
  C   C216      1.0  0.50000  0.08258  0.06650  1.0000
  H   H73       1.0  0.50000  0.97742  0.66546  1.0000
  O   O33       1.0  0.50000  0.98835  0.56082  1.0000
  O   O34       1.0  0.50000  0.01679  0.56101  1.0000
  H   H74       1.0  0.50000  0.02768  0.66578  1.0000
  H   H75       1.0  0.50000  0.92250  0.89823  1.0000
  O   O35       1.0  0.50000  0.89782  0.94458  1.0000
  O   O36       1.0  0.50000  0.89786  0.06522  1.0000
  H   H76       1.0  0.50000  0.92256  0.11140  1.0000
  H   H77       1.0  0.50000  0.97749  0.34452  1.0000
  O   O37       1.0  0.50000  0.98837  0.44922  1.0000
  O   O38       1.0  0.50000  0.01678  0.44926  1.0000
  H   H78       1.0  0.50000  0.02771  0.34462  1.0000
  H   H79       1.0  0.50000  0.08260  0.89883  1.0000
  O   O39       1.0  0.50000  0.10727  0.94495  1.0000
  O   O40       1.0  0.50000  0.10728  0.06540  1.0000
  H   H80       1.0  0.50000  0.08261  0.11176  1.0000
  Ni  Ni2       1.0  0.50000  0.00258  0.00512  1.0000
  Zn  Zn1       1.0  0.00010  0.38468  0.00474  1.0000
  Zn  Zn2       1.0  0.00010  0.62044  0.00519  1.0000
  Zn  Zn3       1.0  0.50000  0.88468  0.00481  1.0000
  Zn  Zn4       1.0  0.50000  0.12044  0.00524  1.0000
  Cu  Cu1       1.0  0.25000  0.25256  0.00495  1.0000
  Cu  Cu2       1.0  0.75010  0.75256  0.00497  1.0000
  Cu  Cu3       1.0  0.25000  0.75256  0.00497  1.0000
  Cu  Cu4       1.0  0.75010  0.25256  0.00495  1.0000
  Cu  Cu5       1.0  0.00010  0.50257  0.50503  1.0000
  Cu  Cu6       1.0  0.50000  0.00258  0.50508  1.0000
