data_image0
_chemical_formula_structural       C26H7O2H2O2HC4HO2HC26H7O2H2O2HC4HO2HC7NCNCNC3NCNC11NCNC7NH8C16HO2H2O2H2O2H2O2HNiC7NCNCNC3NCNC11NCNC7NH8C16HO2H2O2H2O2H2O2HNiC7NCNCNC3NCNC11NCNC7NH8C16HO2H2O2H2O2H2O2HNiCu3Zn6
_chemical_formula_sum              "C204 H72 O36 N24 Ni3 Cu3 Zn6"
_cell_length_a       75.8623
_cell_length_b       75.8753
_cell_length_c       25.0735
_cell_angle_alpha    89.9942
_cell_angle_beta     90.3236
_cell_angle_gamma    120

_space_group_name_H-M_alt    "P 1"
_space_group_IT_number       1

loop_
  _space_group_symop_operation_xyz
  'x, y, z'

loop_
  _atom_site_type_symbol
  _atom_site_label
  _atom_site_symmetry_multiplicity
  _atom_site_fract_x
  _atom_site_fract_y
  _atom_site_fract_z
  _atom_site_occupancy
  C   C1        1.0  0.31424  0.67181  0.01286  1.0000
  C   C2        1.0  0.31393  0.65137  0.01285  1.0000
  C   C3        1.0  0.33407  0.65105  0.01285  1.0000
  C   C4        1.0  0.35452  0.67118  0.01285  1.0000
  C   C5        1.0  0.35484  0.69164  0.01286  1.0000
  C   C6        1.0  0.33470  0.69195  0.01286  1.0000
  C   C7        1.0  0.37466  0.67086  0.01285  1.0000
  C   C8        1.0  0.37435  0.65042  0.01285  1.0000
  C   C9        1.0  0.35389  0.63028  0.01284  1.0000
  C   C10       1.0  0.33375  0.63059  0.01285  1.0000
  C   C11       1.0  0.29410  0.67213  0.01286  1.0000
  C   C12       1.0  0.27365  0.65201  0.01286  1.0000
  C   C13       1.0  0.27333  0.63155  0.01285  1.0000
  C   C14       1.0  0.29347  0.63123  0.01285  1.0000
  C   C15       1.0  0.33502  0.71241  0.01287  1.0000
  C   C16       1.0  0.35547  0.73254  0.01287  1.0000
  C   C17       1.0  0.37561  0.73222  0.01287  1.0000
  C   C18       1.0  0.37530  0.71178  0.01286  1.0000
  C   C19       1.0  0.39607  0.75236  0.01287  1.0000
  C   C20       1.0  0.39639  0.77282  0.01288  1.0000
  C   C21       1.0  0.37626  0.77314  0.01288  1.0000
  C   C22       1.0  0.35580  0.75300  0.01288  1.0000
  C   C23       1.0  0.35357  0.60982  0.01284  1.0000
  C   C24       1.0  0.37371  0.60950  0.01284  1.0000
  C   C25       1.0  0.39416  0.62964  0.01284  1.0000
  C   C26       1.0  0.39449  0.65010  0.01285  1.0000
  H   H1        1.0  0.38981  0.68578  0.01285  1.0000
  H   H2        1.0  0.31861  0.61569  0.01284  1.0000
  H   H3        1.0  0.29434  0.68728  0.01286  1.0000
  H   H4        1.0  0.29324  0.61609  0.01285  1.0000
  H   H5        1.0  0.32011  0.71265  0.01287  1.0000
  H   H6        1.0  0.39021  0.71154  0.01286  1.0000
  H   H7        1.0  0.41098  0.75212  0.01287  1.0000
  O   O1        1.0  0.41632  0.79243  0.01288  1.0000
  O   O2        1.0  0.37656  0.79306  0.01288  1.0000
  H   H8        1.0  0.34089  0.75323  0.01288  1.0000
  H   H9        1.0  0.33842  0.59492  0.01284  1.0000
  O   O3        1.0  0.37340  0.58958  0.01283  1.0000
  O   O4        1.0  0.41378  0.62933  0.01284  1.0000
  H   H10       1.0  0.40963  0.66500  0.01285  1.0000
  C   C27       1.0  0.25287  0.61141  0.01285  1.0000
  C   C28       1.0  0.23273  0.61173  0.01285  1.0000
  C   C29       1.0  0.23305  0.63218  0.01286  1.0000
  C   C30       1.0  0.25351  0.65232  0.01286  1.0000
  H   H11       1.0  0.25264  0.59627  0.01284  1.0000
  O   O5        1.0  0.21281  0.59211  0.01285  1.0000
  O   O6        1.0  0.21344  0.63249  0.01286  1.0000
  H   H12       1.0  0.25375  0.66746  0.01286  1.0000
  C   C31       1.0  0.68813  0.33845  0.01003  1.0000
  C   C32       1.0  0.68781  0.35858  0.01003  1.0000
  C   C33       1.0  0.66735  0.35826  0.01003  1.0000
  C   C34       1.0  0.64722  0.33781  0.01003  1.0000
  C   C35       1.0  0.64754  0.31767  0.01004  1.0000
  C   C36       1.0  0.66799  0.31799  0.01004  1.0000
  C   C37       1.0  0.62676  0.33749  0.01003  1.0000
  C   C38       1.0  0.62643  0.35762  0.01002  1.0000
  C   C39       1.0  0.64657  0.37808  0.01002  1.0000
  C   C40       1.0  0.66703  0.37840  0.01002  1.0000
  C   C41       1.0  0.70859  0.33877  0.01004  1.0000
  C   C42       1.0  0.72873  0.35922  0.01003  1.0000
  C   C43       1.0  0.72841  0.37936  0.01003  1.0000
  C   C44       1.0  0.70795  0.37904  0.01003  1.0000
  C   C45       1.0  0.66831  0.29785  0.01004  1.0000
  C   C46       1.0  0.64818  0.27741  0.01005  1.0000
  C   C47       1.0  0.62772  0.27709  0.01004  1.0000
  C   C48       1.0  0.62740  0.29721  0.01004  1.0000
  C   C49       1.0  0.60758  0.25663  0.01005  1.0000
  C   C50       1.0  0.60790  0.23649  0.01005  1.0000
  C   C51       1.0  0.62836  0.23681  0.01006  1.0000
  C   C52       1.0  0.64850  0.25727  0.01005  1.0000
  C   C53       1.0  0.64626  0.39822  0.01002  1.0000
  C   C54       1.0  0.62580  0.39789  0.01001  1.0000
  C   C55       1.0  0.60566  0.37744  0.01002  1.0000
  C   C56       1.0  0.60598  0.35730  0.01002  1.0000
  H   H13       1.0  0.61185  0.32234  0.01003  1.0000
  H   H14       1.0  0.68194  0.39353  0.01002  1.0000
  H   H15       1.0  0.70882  0.32386  0.01004  1.0000
  H   H16       1.0  0.70771  0.39394  0.01002  1.0000
  H   H17       1.0  0.68346  0.29809  0.01004  1.0000
  H   H18       1.0  0.61225  0.29698  0.01004  1.0000
  H   H19       1.0  0.59244  0.25639  0.01005  1.0000
  O   O7        1.0  0.58828  0.21657  0.01006  1.0000
  O   O8        1.0  0.62867  0.21720  0.01006  1.0000
  H   H20       1.0  0.66364  0.25751  0.01005  1.0000
  H   H21       1.0  0.66116  0.41335  0.01001  1.0000
  O   O9        1.0  0.62549  0.41751  0.01001  1.0000
  O   O10       1.0  0.58573  0.37712  0.01001  1.0000
  H   H22       1.0  0.59107  0.34216  0.01002  1.0000
  C   C57       1.0  0.74855  0.39982  0.01002  1.0000
  C   C58       1.0  0.76901  0.40014  0.01003  1.0000
  C   C59       1.0  0.76932  0.38000  0.01003  1.0000
  C   C60       1.0  0.74918  0.35954  0.01004  1.0000
  H   H23       1.0  0.74831  0.41472  0.01002  1.0000
  O   O11       1.0  0.78862  0.42006  0.01002  1.0000
  O   O12       1.0  0.78925  0.38031  0.01003  1.0000
  H   H24       1.0  0.74942  0.34464  0.01004  1.0000
  C   C61       1.0  0.02482  0.52064  0.24464  1.0000
  C   C62       1.0  0.01291  0.51468  0.29770  1.0000
  C   C63       1.0  0.98930  0.50288  0.29749  1.0000
  C   C64       1.0  0.97741  0.49693  0.24423  1.0000
  C   C65       1.0  0.98974  0.50310  0.19264  1.0000
  C   C66       1.0  0.01250  0.51448  0.19283  1.0000
  C   C67       1.0  0.01965  0.51805  0.13480  1.0000
  N   N1        1.0  0.00109  0.50877  0.09805  1.0000
  C   C68       1.0  0.98256  0.49951  0.13447  1.0000
  N   N2        1.0  0.96051  0.48848  0.11730  1.0000
  C   C69       1.0  0.95402  0.48524  0.05959  1.0000
  N   N3        1.0  0.96795  0.49220  0.01110  1.0000
  C   C70       1.0  0.95399  0.48522  0.96245  1.0000
  C   C71       1.0  0.93183  0.47414  0.98110  1.0000
  C   C72       1.0  0.93183  0.47414  0.04067  1.0000
  N   N4        1.0  0.00010  0.50869  0.92480  1.0000
  C   C73       1.0  0.98240  0.49943  0.88816  1.0000
  N   N5        1.0  0.96042  0.48844  0.90490  1.0000
  C   C74       1.0  0.98955  0.50300  0.83010  1.0000
  C   C75       1.0  0.01228  0.51437  0.83024  1.0000
  C   C76       1.0  0.01946  0.51796  0.88838  1.0000
  C   C77       1.0  0.91211  0.46428  0.07287  1.0000
  C   C78       1.0  0.89183  0.45414  0.04172  1.0000
  C   C79       1.0  0.89182  0.45414  0.97995  1.0000
  C   C80       1.0  0.91209  0.46427  0.94880  1.0000
  C   C81       1.0  0.02461  0.52053  0.77863  1.0000
  C   C82       1.0  0.01274  0.51460  0.72539  1.0000
  C   C83       1.0  0.98917  0.50281  0.72528  1.0000
  C   C84       1.0  0.97725  0.49686  0.77835  1.0000
  N   N6        1.0  0.03408  0.52527  0.01178  1.0000
  C   C85       1.0  0.04799  0.53223  0.96330  1.0000
  N   N7        1.0  0.04147  0.52897  0.90553  1.0000
  C   C86       1.0  0.07019  0.54333  0.98219  1.0000
  C   C87       1.0  0.07021  0.54333  0.04181  1.0000
  C   C88       1.0  0.04805  0.53226  0.06046  1.0000
  C   C89       1.0  0.08996  0.55321  0.07413  1.0000
  C   C90       1.0  0.11025  0.56335  0.04301  1.0000
  C   C91       1.0  0.11021  0.56334  0.98118  1.0000
  C   C92       1.0  0.08989  0.55318  0.94997  1.0000
  N   N8        1.0  0.04163  0.52904  0.11809  1.0000
  H   H25       1.0  0.04210  0.52928  0.24414  1.0000
  H   H26       1.0  0.96012  0.48829  0.24345  1.0000
  H   H27       1.0  0.91237  0.46441  0.11814  1.0000
  H   H28       1.0  0.91232  0.46439  0.90355  1.0000
  H   H29       1.0  0.04187  0.52917  0.77936  1.0000
  H   H30       1.0  0.95998  0.48822  0.77890  1.0000
  H   H31       1.0  0.08974  0.55310  0.11941  1.0000
  H   H32       1.0  0.08962  0.55304  0.90466  1.0000
  C   C93       1.0  0.13055  0.57351  0.07344  1.0000
  C   C94       1.0  0.15079  0.58363  0.04273  1.0000
  C   C95       1.0  0.15076  0.58361  0.98158  1.0000
  C   C96       1.0  0.13049  0.57348  0.95083  1.0000
  C   C97       1.0  0.02448  0.52047  0.35104  1.0000
  C   C98       1.0  0.01274  0.51460  0.40401  1.0000
  C   C99       1.0  0.98941  0.50293  0.40382  1.0000
  C   C100      1.0  0.97770  0.49708  0.35065  1.0000
  C   C101      1.0  0.87153  0.44399  0.07208  1.0000
  C   C102      1.0  0.85128  0.43387  0.04132  1.0000
  C   C103      1.0  0.85128  0.43387  0.98020  1.0000
  C   C104      1.0  0.87152  0.44399  0.94955  1.0000
  C   C105      1.0  0.02436  0.52041  0.67225  1.0000
  C   C106      1.0  0.01268  0.51457  0.61919  1.0000
  C   C107      1.0  0.98937  0.50291  0.61905  1.0000
  C   C108      1.0  0.97763  0.49704  0.67202  1.0000
  H   H33       1.0  0.13062  0.57354  0.11871  1.0000
  O   O13       1.0  0.17055  0.59351  0.07249  1.0000
  O   O14       1.0  0.17050  0.59348  0.95187  1.0000
  H   H34       1.0  0.13052  0.57349  0.90551  1.0000
  H   H35       1.0  0.04176  0.52911  0.35129  1.0000
  O   O15       1.0  0.02406  0.52026  0.45588  1.0000
  O   O16       1.0  0.97803  0.49724  0.45551  1.0000
  H   H36       1.0  0.96042  0.48844  0.35066  1.0000
  H   H37       1.0  0.87148  0.44397  0.11732  1.0000
  O   O17       1.0  0.83153  0.42399  0.07101  1.0000
  O   O18       1.0  0.83153  0.42399  0.95051  1.0000
  H   H38       1.0  0.87147  0.44396  0.90430  1.0000
  H   H39       1.0  0.04161  0.52904  0.67222  1.0000
  O   O19       1.0  0.02403  0.52024  0.56748  1.0000
  O   O20       1.0  0.97806  0.49726  0.56726  1.0000
  H   H40       1.0  0.96036  0.48841  0.67180  1.0000
  Ni  Ni1       1.0  0.00101  0.50873  0.01144  1.0000
  C   C109      1.0  0.51686  0.02860  0.24451  1.0000
  C   C110      1.0  0.51090  0.01669  0.29768  1.0000
  C   C111      1.0  0.49910  0.99309  0.29767  1.0000
  C   C112      1.0  0.49316  0.98120  0.24451  1.0000
  C   C113      1.0  0.49932  0.99353  0.19282  1.0000
  C   C114      1.0  0.51070  0.01629  0.19282  1.0000
  C   C115      1.0  0.51427  0.02343  0.13472  1.0000
  N   N9        1.0  0.50499  0.00487  0.09813  1.0000
  C   C116      1.0  0.49573  0.98635  0.13471  1.0000
  N   N10       1.0  0.48471  0.96431  0.11773  1.0000
  C   C117      1.0  0.48147  0.95781  0.06007  1.0000
  N   N11       1.0  0.48843  0.97174  0.01147  1.0000
  C   C118      1.0  0.48145  0.95779  0.96293  1.0000
  C   C119      1.0  0.47038  0.93563  0.98177  1.0000
  C   C120      1.0  0.47037  0.93563  0.04134  1.0000
  N   N12       1.0  0.50492  0.00472  0.92488  1.0000
  C   C121      1.0  0.49565  0.98619  0.88840  1.0000
  N   N13       1.0  0.48467  0.96422  0.90533  1.0000
  C   C122      1.0  0.49923  0.99334  0.83028  1.0000
  C   C123      1.0  0.51059  0.01607  0.83022  1.0000
  C   C124      1.0  0.51418  0.02324  0.88831  1.0000
  C   C125      1.0  0.46052  0.91592  0.07371  1.0000
  C   C126      1.0  0.45038  0.89564  0.04274  1.0000
  C   C127      1.0  0.45038  0.89563  0.98097  1.0000
  C   C128      1.0  0.46051  0.91589  0.94965  1.0000
  C   C129      1.0  0.51675  0.02839  0.77851  1.0000
  C   C130      1.0  0.51082  0.01653  0.72537  1.0000
  C   C131      1.0  0.49904  0.99296  0.72546  1.0000
  C   C132      1.0  0.49308  0.98105  0.77863  1.0000
  N   N14       1.0  0.52149  0.03786  0.01157  1.0000
  C   C133      1.0  0.52844  0.05177  0.96298  1.0000
  N   N15       1.0  0.52518  0.04525  0.90527  1.0000
  C   C134      1.0  0.53954  0.07396  0.98168  1.0000
  C   C135      1.0  0.53955  0.07398  0.04130  1.0000
  C   C136      1.0  0.52847  0.05183  0.06013  1.0000
  C   C137      1.0  0.54942  0.09373  0.07344  1.0000
  C   C138      1.0  0.55956  0.11401  0.04215  1.0000
  C   C139      1.0  0.55954  0.11398  0.98033  1.0000
  C   C140      1.0  0.54938  0.09366  0.94928  1.0000
  N   N16       1.0  0.52526  0.04541  0.11782  1.0000
  H   H41       1.0  0.52549  0.04587  0.24387  1.0000
  H   H42       1.0  0.48451  0.96391  0.24388  1.0000
  H   H43       1.0  0.46065  0.91617  0.11899  1.0000
  H   H44       1.0  0.46062  0.91613  0.90439  1.0000
  H   H45       1.0  0.52538  0.04566  0.77909  1.0000
  H   H46       1.0  0.48445  0.96378  0.77933  1.0000
  H   H47       1.0  0.54931  0.09351  0.11873  1.0000
  H   H48       1.0  0.54925  0.09339  0.90398  1.0000
  C   C141      1.0  0.56971  0.13432  0.07241  1.0000
  C   C142      1.0  0.57982  0.15455  0.04152  1.0000
  C   C143      1.0  0.57981  0.15452  0.98038  1.0000
  C   C144      1.0  0.56968  0.13425  0.94980  1.0000
  C   C145      1.0  0.51669  0.02826  0.35092  1.0000
  C   C146      1.0  0.51082  0.01652  0.40399  1.0000
  C   C147      1.0  0.49915  0.99319  0.40400  1.0000
  C   C148      1.0  0.49330  0.98149  0.35093  1.0000
  C   C149      1.0  0.44023  0.87534  0.07327  1.0000
  C   C150      1.0  0.43011  0.85510  0.04269  1.0000
  C   C151      1.0  0.43011  0.85510  0.98156  1.0000
  C   C152      1.0  0.44023  0.87533  0.95074  1.0000
  C   C153      1.0  0.51663  0.02815  0.67213  1.0000
  C   C154      1.0  0.51079  0.01647  0.61917  1.0000
  C   C155      1.0  0.49914  0.99317  0.61923  1.0000
  C   C156      1.0  0.49327  0.98143  0.67230  1.0000
  H   H49       1.0  0.56974  0.13438  0.11768  1.0000
  O   O21       1.0  0.58970  0.17431  0.07112  1.0000
  O   O22       1.0  0.58968  0.17425  0.95050  1.0000
  H   H50       1.0  0.56969  0.13429  0.90448  1.0000
  H   H51       1.0  0.52533  0.04554  0.35102  1.0000
  O   O23       1.0  0.51648  0.02784  0.45577  1.0000
  O   O24       1.0  0.49346  0.98181  0.45579  1.0000
  H   H52       1.0  0.48466  0.96421  0.35109  1.0000
  H   H53       1.0  0.44021  0.87529  0.11851  1.0000
  O   O25       1.0  0.42024  0.83535  0.07255  1.0000
  O   O26       1.0  0.42024  0.83535  0.95205  1.0000
  H   H54       1.0  0.44021  0.87528  0.90549  1.0000
  H   H55       1.0  0.52525  0.04540  0.67195  1.0000
  O   O27       1.0  0.51647  0.02782  0.56736  1.0000
  O   O28       1.0  0.49349  0.98186  0.56754  1.0000
  H   H56       1.0  0.48464  0.96416  0.67223  1.0000
  Ni  Ni2       1.0  0.50496  0.00480  0.01152  1.0000
  C   C157      1.0  0.50899  0.48898  0.24439  1.0000
  C   C158      1.0  0.50304  0.49494  0.29756  1.0000
  C   C159      1.0  0.49124  0.50674  0.29754  1.0000
  C   C160      1.0  0.48529  0.51269  0.24437  1.0000
  C   C161      1.0  0.49146  0.50652  0.19269  1.0000
  C   C162      1.0  0.50283  0.49514  0.19269  1.0000
  C   C163      1.0  0.50640  0.49157  0.13460  1.0000
  N   N17       1.0  0.49713  0.50085  0.09801  1.0000
  C   C164      1.0  0.48787  0.51011  0.13458  1.0000
  N   N18       1.0  0.47684  0.52114  0.11759  1.0000
  C   C165      1.0  0.47360  0.52439  0.05993  1.0000
  N   N19       1.0  0.48056  0.51742  0.01133  1.0000
  C   C166      1.0  0.47358  0.52440  0.96280  1.0000
  C   C167      1.0  0.46251  0.53548  0.98163  1.0000
  C   C168      1.0  0.46250  0.53548  0.04120  1.0000
  N   N20       1.0  0.49705  0.50093  0.92476  1.0000
  C   C169      1.0  0.48778  0.51020  0.88827  1.0000
  N   N21       1.0  0.47680  0.52118  0.90519  1.0000
  C   C170      1.0  0.49136  0.50662  0.83015  1.0000
  C   C171      1.0  0.50272  0.49525  0.83010  1.0000
  C   C172      1.0  0.50631  0.49167  0.88818  1.0000
  C   C173      1.0  0.45265  0.54534  0.07356  1.0000
  C   C174      1.0  0.44251  0.55548  0.04259  1.0000
  C   C175      1.0  0.44250  0.55549  0.98081  1.0000
  C   C176      1.0  0.45264  0.54535  0.94950  1.0000
  C   C177      1.0  0.50888  0.48909  0.77839  1.0000
  C   C178      1.0  0.50295  0.49502  0.72524  1.0000
  C   C179      1.0  0.49116  0.50681  0.72533  1.0000
  C   C180      1.0  0.48521  0.51277  0.77850  1.0000
  N   N22       1.0  0.51362  0.48435  0.01145  1.0000
  C   C181      1.0  0.52057  0.47740  0.96286  1.0000
  N   N23       1.0  0.51731  0.48066  0.90515  1.0000
  C   C182      1.0  0.53167  0.46630  0.98156  1.0000
  C   C183      1.0  0.53168  0.46629  0.04118  1.0000
  C   C184      1.0  0.52060  0.47737  0.06002  1.0000
  C   C185      1.0  0.54155  0.45641  0.07334  1.0000
  C   C186      1.0  0.55169  0.44627  0.04205  1.0000
  C   C187      1.0  0.55167  0.44629  0.98022  1.0000
  C   C188      1.0  0.54152  0.45645  0.94918  1.0000
  N   N24       1.0  0.51739  0.48058  0.11771  1.0000
  H   H57       1.0  0.51763  0.48034  0.24375  1.0000
  H   H58       1.0  0.47665  0.52133  0.24374  1.0000
  H   H59       1.0  0.45278  0.54521  0.11884  1.0000
  H   H60       1.0  0.45275  0.54524  0.90424  1.0000
  H   H61       1.0  0.51751  0.48046  0.77897  1.0000
  H   H62       1.0  0.47658  0.52141  0.77919  1.0000
  H   H63       1.0  0.54144  0.45652  0.11862  1.0000
  H   H64       1.0  0.54138  0.45658  0.90387  1.0000
  C   C189      1.0  0.56184  0.43611  0.07231  1.0000
  C   C190      1.0  0.57196  0.42600  0.04143  1.0000
  C   C191      1.0  0.57194  0.42601  0.98028  1.0000
  C   C192      1.0  0.56181  0.43615  0.94970  1.0000
  C   C193      1.0  0.50882  0.48915  0.35080  1.0000
  C   C194      1.0  0.50295  0.49502  0.40387  1.0000
  C   C195      1.0  0.49129  0.50669  0.40387  1.0000
  C   C196      1.0  0.48544  0.51254  0.35080  1.0000
  C   C197      1.0  0.43236  0.56563  0.07311  1.0000
  C   C198      1.0  0.42224  0.57576  0.04253  1.0000
  C   C199      1.0  0.42224  0.57576  0.98140  1.0000
  C   C200      1.0  0.43236  0.56564  0.95058  1.0000
  C   C201      1.0  0.50876  0.48922  0.67201  1.0000
  C   C202      1.0  0.50292  0.49506  0.61905  1.0000
  C   C203      1.0  0.49126  0.50671  0.61910  1.0000
  C   C204      1.0  0.48540  0.51258  0.67216  1.0000
  H   H65       1.0  0.56188  0.43608  0.11758  1.0000
  O   O29       1.0  0.58184  0.41611  0.07103  1.0000
  O   O30       1.0  0.58181  0.41614  0.95041  1.0000
  H   H66       1.0  0.56183  0.43613  0.90438  1.0000
  H   H67       1.0  0.51746  0.48051  0.35090  1.0000
  O   O31       1.0  0.50861  0.48936  0.45564  1.0000
  O   O32       1.0  0.48560  0.51238  0.45565  1.0000
  H   H68       1.0  0.47680  0.52118  0.35096  1.0000
  H   H69       1.0  0.43234  0.56565  0.11835  1.0000
  O   O33       1.0  0.41237  0.58563  0.07238  1.0000
  O   O34       1.0  0.41237  0.58563  0.95188  1.0000
  H   H70       1.0  0.43233  0.56566  0.90534  1.0000
  H   H71       1.0  0.51738  0.48059  0.67183  1.0000
  O   O35       1.0  0.50859  0.48939  0.56724  1.0000
  O   O36       1.0  0.48561  0.51237  0.56740  1.0000
  H   H72       1.0  0.47676  0.52122  0.67209  1.0000
  Ni  Ni3       1.0  0.49709  0.50089  0.01139  1.0000
  Cu  Cu1       1.0  0.00105  0.50875  0.51152  1.0000
  Cu  Cu2       1.0  0.50497  0.00483  0.51160  1.0000
  Cu  Cu3       1.0  0.49710  0.50087  0.51147  1.0000
  Zn  Zn1       1.0  0.19183  0.60290  0.01252  1.0000
  Zn  Zn2       1.0  0.59908  0.19558  0.01043  1.0000
  Zn  Zn3       1.0  0.40298  0.59754  0.01247  1.0000
  Zn  Zn4       1.0  0.81023  0.41209  0.01039  1.0000
  Zn  Zn5       1.0  0.40834  0.81405  0.01258  1.0000
  Zn  Zn6       1.0  0.59371  0.40672  0.01036  1.0000
