data_image0
_chemical_formula_structural       C18HO2H2O2H2O2HC18HO2H2O2H2O2HC7NCNCNC3NCNC11NCNC7NH8C16HO2H2O2H2O2H2O2HNiC7NCNCNC3NCNC11NCNC7NH8C16HO2H2O2H2O2H2O2HNiC7NCNCNC3NCNC11NCNC7NH8C16HO2H2O2H2O2H2O2HNiCu3Zn6
_chemical_formula_sum              "C180 H60 O36 N24 Ni3 Cu3 Zn6"
_cell_length_a       64.6518
_cell_length_b       64.6494
_cell_length_c       25.073
_cell_angle_alpha    90.0008
_cell_angle_beta     90.3206
_cell_angle_gamma    120.001

_space_group_name_H-M_alt    "P 1"
_space_group_IT_number       1

loop_
  _space_group_symop_operation_xyz
  'x, y, z'

loop_
  _atom_site_type_symbol
  _atom_site_label
  _atom_site_symmetry_multiplicity
  _atom_site_fract_x
  _atom_site_fract_y
  _atom_site_fract_z
  _atom_site_occupancy
  C   C1        1.0  0.35949  0.70056  0.00809  1.0000
  C   C2        1.0  0.33764  0.70015  0.00809  1.0000
  C   C3        1.0  0.31619  0.67830  0.00809  1.0000
  C   C4        1.0  0.31659  0.65685  0.00810  1.0000
  C   C5        1.0  0.33845  0.65726  0.00811  1.0000
  C   C6        1.0  0.35990  0.67911  0.00810  1.0000
  C   C7        1.0  0.29515  0.63499  0.00811  1.0000
  C   C8        1.0  0.27329  0.63459  0.00810  1.0000
  C   C9        1.0  0.27288  0.65604  0.00810  1.0000
  C   C10       1.0  0.29433  0.67789  0.00809  1.0000
  C   C11       1.0  0.38094  0.72242  0.00809  1.0000
  C   C12       1.0  0.38053  0.74387  0.00808  1.0000
  C   C13       1.0  0.35868  0.74346  0.00808  1.0000
  C   C14       1.0  0.33723  0.72160  0.00808  1.0000
  C   C15       1.0  0.38175  0.67952  0.00810  1.0000
  C   C16       1.0  0.38216  0.65807  0.00811  1.0000
  C   C17       1.0  0.36071  0.63621  0.00812  1.0000
  C   C18       1.0  0.33885  0.63581  0.00811  1.0000
  H   H1        1.0  0.29545  0.61891  0.00811  1.0000
  O   O1        1.0  0.25399  0.61492  0.00811  1.0000
  O   O2        1.0  0.25321  0.65567  0.00809  1.0000
  H   H2        1.0  0.29403  0.69398  0.00809  1.0000
  H   H3        1.0  0.39733  0.72272  0.00809  1.0000
  O   O3        1.0  0.39984  0.76354  0.00808  1.0000
  O   O4        1.0  0.35831  0.76276  0.00807  1.0000
  H   H4        1.0  0.32084  0.72130  0.00808  1.0000
  H   H5        1.0  0.39784  0.69591  0.00810  1.0000
  O   O5        1.0  0.40183  0.65843  0.00811  1.0000
  O   O6        1.0  0.36107  0.61691  0.00812  1.0000
  H   H6        1.0  0.32277  0.61941  0.00811  1.0000
  C   C19       1.0  0.64953  0.32392  0.00571  1.0000
  C   C20       1.0  0.67098  0.32351  0.00571  1.0000
  C   C21       1.0  0.69283  0.34496  0.00571  1.0000
  C   C22       1.0  0.69324  0.36682  0.00572  1.0000
  C   C23       1.0  0.67179  0.36723  0.00572  1.0000
  C   C24       1.0  0.64993  0.34578  0.00572  1.0000
  C   C25       1.0  0.71509  0.38827  0.00572  1.0000
  C   C26       1.0  0.73654  0.38786  0.00572  1.0000
  C   C27       1.0  0.73613  0.36601  0.00571  1.0000
  C   C28       1.0  0.71428  0.34456  0.00571  1.0000
  C   C29       1.0  0.62767  0.30247  0.00571  1.0000
  C   C30       1.0  0.62726  0.28062  0.00570  1.0000
  C   C31       1.0  0.64871  0.28021  0.00570  1.0000
  C   C32       1.0  0.67057  0.30166  0.00570  1.0000
  C   C33       1.0  0.62849  0.34618  0.00572  1.0000
  C   C34       1.0  0.62889  0.36804  0.00573  1.0000
  C   C35       1.0  0.65075  0.38949  0.00573  1.0000
  C   C36       1.0  0.67220  0.38908  0.00573  1.0000
  H   H7        1.0  0.71540  0.40466  0.00573  1.0000
  O   O7        1.0  0.75621  0.40717  0.00572  1.0000
  O   O8        1.0  0.75544  0.36564  0.00571  1.0000
  H   H8        1.0  0.71397  0.32817  0.00570  1.0000
  H   H9        1.0  0.61159  0.30278  0.00571  1.0000
  O   O9        1.0  0.60760  0.26131  0.00570  1.0000
  O   O10       1.0  0.64835  0.26054  0.00569  1.0000
  H   H10       1.0  0.68665  0.30135  0.00570  1.0000
  H   H11       1.0  0.61209  0.33010  0.00572  1.0000
  O   O11       1.0  0.60959  0.36841  0.00573  1.0000
  O   O12       1.0  0.65111  0.40916  0.00574  1.0000
  H   H12       1.0  0.68859  0.40517  0.00573  1.0000
  C   C37       1.0  0.03263  0.52130  0.24012  1.0000
  C   C38       1.0  0.01865  0.51431  0.29319  1.0000
  C   C39       1.0  0.99095  0.50046  0.29298  1.0000
  C   C40       1.0  0.97700  0.49349  0.23971  1.0000
  C   C41       1.0  0.99147  0.50072  0.18813  1.0000
  C   C42       1.0  0.01818  0.51408  0.18832  1.0000
  C   C43       1.0  0.02656  0.51827  0.13029  1.0000
  N   N1        1.0  0.00478  0.50738  0.09354  1.0000
  C   C44       1.0  0.98304  0.49651  0.12996  1.0000
  N   N2        1.0  0.95717  0.48357  0.11279  1.0000
  C   C45       1.0  0.94954  0.47976  0.05507  1.0000
  N   N3        1.0  0.96589  0.48793  0.00659  1.0000
  C   C46       1.0  0.94951  0.47974  0.95793  1.0000
  C   C47       1.0  0.92351  0.46674  0.97658  1.0000
  C   C48       1.0  0.92351  0.46674  0.03615  1.0000
  N   N4        1.0  0.00459  0.50728  0.92029  1.0000
  C   C49       1.0  0.98285  0.49641  0.88365  1.0000
  N   N5        1.0  0.95706  0.48352  0.90038  1.0000
  C   C50       1.0  0.99124  0.50061  0.82558  1.0000
  C   C51       1.0  0.01792  0.51395  0.82572  1.0000
  C   C52       1.0  0.02633  0.51815  0.88387  1.0000
  C   C53       1.0  0.90038  0.45518  0.06835  1.0000
  C   C54       1.0  0.87658  0.44328  0.03721  1.0000
  C   C55       1.0  0.87656  0.44327  0.97543  1.0000
  C   C56       1.0  0.90035  0.45516  0.94429  1.0000
  C   C57       1.0  0.03238  0.52118  0.77411  1.0000
  C   C58       1.0  0.01846  0.51422  0.72087  1.0000
  C   C59       1.0  0.99079  0.50038  0.72076  1.0000
  C   C60       1.0  0.97681  0.49339  0.77383  1.0000
  N   N6        1.0  0.04349  0.52673  0.00726  1.0000
  C   C61       1.0  0.05982  0.53490  0.95878  1.0000
  N   N7        1.0  0.05216  0.53107  0.90102  1.0000
  C   C62       1.0  0.08586  0.54792  0.97767  1.0000
  C   C63       1.0  0.08589  0.54793  0.03729  1.0000
  C   C64       1.0  0.05989  0.53493  0.05594  1.0000
  C   C65       1.0  0.10907  0.55952  0.06961  1.0000
  C   C66       1.0  0.13287  0.57142  0.03849  1.0000
  C   C67       1.0  0.13282  0.57140  0.97667  1.0000
  C   C68       1.0  0.10898  0.55948  0.94545  1.0000
  N   N8        1.0  0.05235  0.53116  0.11358  1.0000
  H   H13       1.0  0.05290  0.53144  0.23963  1.0000
  H   H14       1.0  0.95671  0.48334  0.23894  1.0000
  H   H15       1.0  0.90068  0.45533  0.11363  1.0000
  H   H16       1.0  0.90062  0.45530  0.89903  1.0000
  H   H17       1.0  0.05264  0.53131  0.77484  1.0000
  H   H18       1.0  0.95654  0.48326  0.77438  1.0000
  H   H19       1.0  0.10881  0.55939  0.11489  1.0000
  H   H20       1.0  0.10867  0.55932  0.90014  1.0000
  C   C69       1.0  0.15670  0.58334  0.06892  1.0000
  C   C70       1.0  0.18044  0.59521  0.03821  1.0000
  C   C71       1.0  0.18040  0.59519  0.97707  1.0000
  C   C72       1.0  0.15662  0.58330  0.94632  1.0000
  C   C73       1.0  0.03223  0.52110  0.34653  1.0000
  C   C74       1.0  0.01845  0.51421  0.39951  1.0000
  C   C75       1.0  0.99108  0.50053  0.39931  1.0000
  C   C76       1.0  0.97734  0.49366  0.34614  1.0000
  C   C77       1.0  0.85276  0.43136  0.06757  1.0000
  C   C78       1.0  0.82900  0.41949  0.03681  1.0000
  C   C79       1.0  0.82900  0.41949  0.97568  1.0000
  C   C80       1.0  0.85274  0.43136  0.94503  1.0000
  C   C81       1.0  0.03209  0.52103  0.66773  1.0000
  C   C82       1.0  0.01838  0.51418  0.61467  1.0000
  C   C83       1.0  0.99103  0.50050  0.61452  1.0000
  C   C84       1.0  0.97725  0.49361  0.66750  1.0000
  H   H21       1.0  0.15677  0.58337  0.11419  1.0000
  O   O13       1.0  0.20363  0.60680  0.06798  1.0000
  O   O14       1.0  0.20356  0.60677  0.94735  1.0000
  H   H22       1.0  0.15666  0.58332  0.90099  1.0000
  H   H23       1.0  0.05251  0.53124  0.34678  1.0000
  O   O15       1.0  0.03174  0.52086  0.45138  1.0000
  O   O16       1.0  0.97772  0.49385  0.45100  1.0000
  H   H24       1.0  0.95706  0.48352  0.34616  1.0000
  H   H25       1.0  0.85270  0.43134  0.11281  1.0000
  O   O17       1.0  0.80582  0.40790  0.06650  1.0000
  O   O18       1.0  0.80582  0.40790  0.94600  1.0000
  H   H26       1.0  0.85268  0.43133  0.89979  1.0000
  H   H27       1.0  0.05233  0.53115  0.66770  1.0000
  O   O19       1.0  0.03169  0.52083  0.56296  1.0000
  O   O20       1.0  0.97776  0.49387  0.56274  1.0000
  H   H28       1.0  0.95699  0.48348  0.66728  1.0000
  Ni  Ni1       1.0  0.00469  0.50733  0.00693  1.0000
  C   C85       1.0  0.51397  0.03995  0.23984  1.0000
  C   C86       1.0  0.50698  0.02597  0.29301  1.0000
  C   C87       1.0  0.49314  0.99827  0.29299  1.0000
  C   C88       1.0  0.48616  0.98431  0.23983  1.0000
  C   C89       1.0  0.49339  0.99879  0.18814  1.0000
  C   C90       1.0  0.50675  0.02550  0.18814  1.0000
  C   C91       1.0  0.51094  0.03388  0.13005  1.0000
  N   N9        1.0  0.50005  0.01210  0.09346  1.0000
  C   C92       1.0  0.48918  0.99036  0.13003  1.0000
  N   N10       1.0  0.47624  0.96449  0.11305  1.0000
  C   C93       1.0  0.47243  0.95686  0.05539  1.0000
  N   N11       1.0  0.48061  0.97321  0.00678  1.0000
  C   C94       1.0  0.47241  0.95683  0.95825  1.0000
  C   C95       1.0  0.45941  0.93083  0.97708  1.0000
  C   C96       1.0  0.45941  0.93083  0.03665  1.0000
  N   N12       1.0  0.49996  0.01191  0.92020  1.0000
  C   C97       1.0  0.48908  0.99017  0.88372  1.0000
  N   N13       1.0  0.47619  0.96438  0.90064  1.0000
  C   C98       1.0  0.49328  0.99856  0.82559  1.0000
  C   C99       1.0  0.50662  0.02524  0.82554  1.0000
  C   C100      1.0  0.51083  0.03365  0.88363  1.0000
  C   C101      1.0  0.44785  0.90769  0.06902  1.0000
  C   C102      1.0  0.43595  0.88389  0.03804  1.0000
  C   C103      1.0  0.43594  0.88388  0.97627  1.0000
  C   C104      1.0  0.44783  0.90767  0.94495  1.0000
  C   C105      1.0  0.51385  0.03970  0.77383  1.0000
  C   C106      1.0  0.50689  0.02578  0.72069  1.0000
  C   C107      1.0  0.49305  0.99811  0.72078  1.0000
  C   C108      1.0  0.48607  0.98413  0.77395  1.0000
  N   N14       1.0  0.51941  0.05081  0.00690  1.0000
  C   C109      1.0  0.52757  0.06714  0.95830  1.0000
  N   N15       1.0  0.52374  0.05949  0.90059  1.0000
  C   C110      1.0  0.54059  0.09319  0.97701  1.0000
  C   C111      1.0  0.54060  0.09321  0.03663  1.0000
  C   C112      1.0  0.52760  0.06721  0.05546  1.0000
  C   C113      1.0  0.55219  0.11639  0.06878  1.0000
  C   C114      1.0  0.56409  0.14019  0.03749  1.0000
  C   C115      1.0  0.56407  0.14015  0.97567  1.0000
  C   C116      1.0  0.55215  0.11630  0.94462  1.0000
  N   N16       1.0  0.52384  0.05967  0.11315  1.0000
  H   H29       1.0  0.52411  0.06022  0.23920  1.0000
  H   H30       1.0  0.47601  0.96403  0.23920  1.0000
  H   H31       1.0  0.44800  0.90800  0.11430  1.0000
  H   H32       1.0  0.44797  0.90794  0.89970  1.0000
  H   H33       1.0  0.52398  0.05996  0.77441  1.0000
  H   H34       1.0  0.47593  0.96386  0.77464  1.0000
  H   H35       1.0  0.55207  0.11613  0.11406  1.0000
  H   H36       1.0  0.55199  0.11599  0.89931  1.0000
  C   C117      1.0  0.57601  0.16402  0.06775  1.0000
  C   C118      1.0  0.58788  0.18776  0.03687  1.0000
  C   C119      1.0  0.58786  0.18772  0.97572  1.0000
  C   C120      1.0  0.57597  0.16394  0.94514  1.0000
  C   C121      1.0  0.51378  0.03955  0.34625  1.0000
  C   C122      1.0  0.50689  0.02577  0.39932  1.0000
  C   C123      1.0  0.49320  0.99839  0.39932  1.0000
  C   C124      1.0  0.48633  0.98466  0.34626  1.0000
  C   C125      1.0  0.42403  0.86007  0.06857  1.0000
  C   C126      1.0  0.41215  0.83632  0.03799  1.0000
  C   C127      1.0  0.41216  0.83632  0.97686  1.0000
  C   C128      1.0  0.42403  0.86006  0.94604  1.0000
  C   C129      1.0  0.51370  0.03941  0.66745  1.0000
  C   C130      1.0  0.50685  0.02570  0.61449  1.0000
  C   C131      1.0  0.49317  0.99835  0.61454  1.0000
  C   C132      1.0  0.48628  0.98457  0.66761  1.0000
  H   H37       1.0  0.57605  0.16409  0.11302  1.0000
  O   O21       1.0  0.59948  0.21096  0.06647  1.0000
  O   O22       1.0  0.59945  0.21089  0.94584  1.0000
  H   H38       1.0  0.57599  0.16398  0.89982  1.0000
  H   H39       1.0  0.52391  0.05983  0.34635  1.0000
  O   O23       1.0  0.51353  0.03906  0.45110  1.0000
  O   O24       1.0  0.48652  0.98504  0.45111  1.0000
  H   H40       1.0  0.47619  0.96438  0.34641  1.0000
  H   H41       1.0  0.42401  0.86002  0.11381  1.0000
  O   O25       1.0  0.40057  0.81314  0.06784  1.0000
  O   O26       1.0  0.40057  0.81314  0.94734  1.0000
  H   H42       1.0  0.42400  0.86000  0.90079  1.0000
  H   H43       1.0  0.52382  0.05965  0.66727  1.0000
  O   O27       1.0  0.51351  0.03902  0.56268  1.0000
  O   O28       1.0  0.48654  0.98508  0.56285  1.0000
  H   H44       1.0  0.47615  0.96431  0.66754  1.0000
  Ni  Ni2       1.0  0.50000  0.01201  0.00684  1.0000
  C   C133      1.0  0.52336  0.50277  0.24000  1.0000
  C   C134      1.0  0.51638  0.50976  0.29317  1.0000
  C   C135      1.0  0.50253  0.52360  0.29315  1.0000
  C   C136      1.0  0.49555  0.53058  0.23999  1.0000
  C   C137      1.0  0.50279  0.52335  0.18830  1.0000
  C   C138      1.0  0.51614  0.50999  0.18830  1.0000
  C   C139      1.0  0.52033  0.50580  0.13021  1.0000
  N   N17       1.0  0.50944  0.51669  0.09362  1.0000
  C   C140      1.0  0.49857  0.52756  0.13019  1.0000
  N   N18       1.0  0.48564  0.54050  0.11321  1.0000
  C   C141      1.0  0.48182  0.54431  0.05555  1.0000
  N   N19       1.0  0.49000  0.53613  0.00695  1.0000
  C   C142      1.0  0.48181  0.54432  0.95841  1.0000
  C   C143      1.0  0.46881  0.55732  0.97725  1.0000
  C   C144      1.0  0.46881  0.55733  0.03682  1.0000
  N   N20       1.0  0.50935  0.51678  0.92036  1.0000
  C   C145      1.0  0.49847  0.52766  0.88388  1.0000
  N   N21       1.0  0.48558  0.54055  0.90080  1.0000
  C   C146      1.0  0.50267  0.52346  0.82575  1.0000
  C   C147      1.0  0.51601  0.51012  0.82570  1.0000
  C   C148      1.0  0.52022  0.50591  0.88379  1.0000
  C   C149      1.0  0.45724  0.56889  0.06918  1.0000
  C   C150      1.0  0.44534  0.58079  0.03821  1.0000
  C   C151      1.0  0.44533  0.58080  0.97643  1.0000
  C   C152      1.0  0.45723  0.56891  0.94512  1.0000
  C   C153      1.0  0.52324  0.50289  0.77399  1.0000
  C   C154      1.0  0.51628  0.50985  0.72085  1.0000
  C   C155      1.0  0.50245  0.52368  0.72094  1.0000
  C   C156      1.0  0.49546  0.53067  0.77411  1.0000
  N   N22       1.0  0.52880  0.49734  0.00706  1.0000
  C   C157      1.0  0.53696  0.48917  0.95846  1.0000
  N   N23       1.0  0.53313  0.49300  0.90075  1.0000
  C   C158      1.0  0.54998  0.47615  0.97717  1.0000
  C   C159      1.0  0.54999  0.47614  0.03679  1.0000
  C   C160      1.0  0.53699  0.48914  0.05562  1.0000
  C   C161      1.0  0.56158  0.46455  0.06894  1.0000
  C   C162      1.0  0.57348  0.45265  0.03765  1.0000
  C   C163      1.0  0.57346  0.45267  0.97582  1.0000
  C   C164      1.0  0.56154  0.46459  0.94477  1.0000
  N   N24       1.0  0.53323  0.49291  0.11331  1.0000
  H   H45       1.0  0.53350  0.49263  0.23936  1.0000
  H   H46       1.0  0.48540  0.54073  0.23936  1.0000
  H   H47       1.0  0.45739  0.56874  0.11446  1.0000
  H   H48       1.0  0.45736  0.56877  0.89986  1.0000
  H   H49       1.0  0.53337  0.49276  0.77457  1.0000
  H   H50       1.0  0.48532  0.54081  0.77480  1.0000
  H   H51       1.0  0.56146  0.46468  0.11422  1.0000
  H   H52       1.0  0.56138  0.46475  0.89947  1.0000
  C   C165      1.0  0.58540  0.44073  0.06791  1.0000
  C   C166      1.0  0.59727  0.42886  0.03702  1.0000
  C   C167      1.0  0.59725  0.42888  0.97588  1.0000
  C   C168      1.0  0.58536  0.44077  0.94530  1.0000
  C   C169      1.0  0.52317  0.50297  0.34641  1.0000
  C   C170      1.0  0.51628  0.50986  0.39948  1.0000
  C   C171      1.0  0.50259  0.52354  0.39948  1.0000
  C   C172      1.0  0.49572  0.53041  0.34642  1.0000
  C   C173      1.0  0.43343  0.59270  0.06874  1.0000
  C   C174      1.0  0.42155  0.60458  0.03815  1.0000
  C   C175      1.0  0.42155  0.60458  0.97703  1.0000
  C   C176      1.0  0.43342  0.59271  0.94620  1.0000
  C   C177      1.0  0.52310  0.50304  0.66761  1.0000
  C   C178      1.0  0.51624  0.50989  0.61465  1.0000
  C   C179      1.0  0.50257  0.52356  0.61470  1.0000
  C   C180      1.0  0.49568  0.53045  0.66777  1.0000
  H   H53       1.0  0.58544  0.44070  0.11318  1.0000
  O   O29       1.0  0.60887  0.41727  0.06662  1.0000
  O   O30       1.0  0.60883  0.41730  0.94600  1.0000
  H   H54       1.0  0.58538  0.44075  0.89998  1.0000
  H   H55       1.0  0.53331  0.49283  0.34651  1.0000
  O   O31       1.0  0.52292  0.50321  0.45126  1.0000
  O   O32       1.0  0.49591  0.53022  0.45127  1.0000
  H   H56       1.0  0.48558  0.54055  0.34658  1.0000
  H   H57       1.0  0.43340  0.59273  0.11398  1.0000
  O   O33       1.0  0.40996  0.61617  0.06801  1.0000
  O   O34       1.0  0.40996  0.61617  0.94751  1.0000
  H   H58       1.0  0.43339  0.59274  0.90096  1.0000
  H   H59       1.0  0.53322  0.49292  0.66743  1.0000
  O   O35       1.0  0.52290  0.50323  0.56284  1.0000
  O   O36       1.0  0.49593  0.53020  0.56301  1.0000
  H   H60       1.0  0.48555  0.54059  0.66770  1.0000
  Ni  Ni3       1.0  0.50940  0.51674  0.00700  1.0000
  Cu  Cu1       1.0  0.00473  0.50735  0.50701  1.0000
  Cu  Cu2       1.0  0.50002  0.01205  0.50692  1.0000
  Cu  Cu3       1.0  0.50942  0.51672  0.50708  1.0000
  Zn  Zn1       1.0  0.22860  0.62104  0.00788  1.0000
  Zn  Zn2       1.0  0.61372  0.23592  0.00592  1.0000
  Zn  Zn3       1.0  0.39571  0.62692  0.00793  1.0000
  Zn  Zn4       1.0  0.78082  0.39715  0.00597  1.0000
  Zn  Zn5       1.0  0.38982  0.78814  0.00782  1.0000
  Zn  Zn6       1.0  0.61960  0.40303  0.00602  1.0000
