data_image0
_chemical_formula_structural       C26H7O2H2O2HC4HO2HC26H7O2H2O2HC4HO2HC7NCNCNC3NCNC11NCNC7NHO2H2O2H2O2H2O2HNiC7NCNCNC3NCNC11NCNC7NHO2H2O2H2O2H2O2HNiC7NCNCNC3NCNC11NCNC7NHO2H2O2H2O2H2O2HNiCu3Zn6
_chemical_formula_sum              "C156 H48 O36 N24 Ni3 Cu3 Zn6"
_cell_length_a       65.7706
_cell_length_b       65.7708
_cell_length_c       19.2396
_cell_angle_alpha    89.9989
_cell_angle_beta     90.0008
_cell_angle_gamma    120.001

_space_group_name_H-M_alt    "P 1"
_space_group_IT_number       1

loop_
  _space_group_symop_operation_xyz
  'x, y, z'

loop_
  _atom_site_type_symbol
  _atom_site_label
  _atom_site_symmetry_multiplicity
  _atom_site_fract_x
  _atom_site_fract_y
  _atom_site_fract_z
  _atom_site_occupancy
  C   C1        1.0  0.31091  0.66975  0.00010  1.0000
  C   C2        1.0  0.31130  0.64654  0.00010  1.0000
  C   C3        1.0  0.33491  0.64693  0.00010  1.0000
  C   C4        1.0  0.35812  0.67052  0.00010  1.0000
  C   C5        1.0  0.35774  0.69374  0.00010  1.0000
  C   C6        1.0  0.33413  0.69336  0.00010  1.0000
  C   C7        1.0  0.38173  0.67090  0.00010  1.0000
  C   C8        1.0  0.38212  0.64770  0.00010  1.0000
  C   C9        1.0  0.35889  0.62409  0.00010  1.0000
  C   C10       1.0  0.33529  0.62370  0.00010  1.0000
  C   C11       1.0  0.28730  0.66936  0.00010  1.0000
  C   C12       1.0  0.26409  0.64577  0.00010  1.0000
  C   C13       1.0  0.26447  0.62254  0.00010  1.0000
  C   C14       1.0  0.28808  0.62293  0.00010  1.0000
  C   C15       1.0  0.33375  0.71658  0.00010  1.0000
  C   C16       1.0  0.35696  0.74018  0.00010  1.0000
  C   C17       1.0  0.38057  0.74056  0.00010  1.0000
  C   C18       1.0  0.38096  0.71735  0.00010  1.0000
  C   C19       1.0  0.40379  0.76417  0.00010  1.0000
  C   C20       1.0  0.40341  0.78740  0.00010  1.0000
  C   C21       1.0  0.37980  0.78701  0.00010  1.0000
  C   C22       1.0  0.35658  0.76340  0.00010  1.0000
  C   C23       1.0  0.35928  0.60086  0.00010  1.0000
  C   C24       1.0  0.38288  0.60125  0.00010  1.0000
  C   C25       1.0  0.40611  0.62486  0.00010  1.0000
  C   C26       1.0  0.40572  0.64808  0.00010  1.0000
  H   H1        1.0  0.39892  0.68839  0.00010  1.0000
  H   H2        1.0  0.31810  0.60623  0.00010  1.0000
  H   H3        1.0  0.28702  0.68656  0.00010  1.0000
  H   H4        1.0  0.28837  0.60574  0.00010  1.0000
  H   H5        1.0  0.31627  0.71630  0.00010  1.0000
  H   H6        1.0  0.39843  0.71764  0.00010  1.0000
  H   H7        1.0  0.42126  0.76446  0.00010  1.0000
  O   O1        1.0  0.42602  0.81039  0.00010  1.0000
  O   O2        1.0  0.37943  0.80963  0.00010  1.0000
  H   H8        1.0  0.33911  0.76312  0.00010  1.0000
  H   H9        1.0  0.34209  0.58339  0.00010  1.0000
  O   O3        1.0  0.38326  0.57863  0.00010  1.0000
  O   O4        1.0  0.42910  0.62523  0.00010  1.0000
  H   H10       1.0  0.42291  0.66555  0.00010  1.0000
  C   C27       1.0  0.24125  0.59893  0.00010  1.0000
  C   C28       1.0  0.21765  0.59854  0.00010  1.0000
  C   C29       1.0  0.21726  0.62177  0.00010  1.0000
  C   C30       1.0  0.24048  0.64538  0.00010  1.0000
  H   H11       1.0  0.24154  0.58175  0.00010  1.0000
  O   O5        1.0  0.19503  0.57555  0.00010  1.0000
  O   O6        1.0  0.19427  0.62139  0.00010  1.0000
  H   H12       1.0  0.24020  0.66256  0.00010  1.0000
  C   C31       1.0  0.69108  0.33643  0.00010  1.0000
  C   C32       1.0  0.69146  0.36002  0.00010  1.0000
  C   C33       1.0  0.66824  0.36041  0.00010  1.0000
  C   C34       1.0  0.64464  0.33720  0.00010  1.0000
  C   C35       1.0  0.64425  0.31359  0.00010  1.0000
  C   C36       1.0  0.66747  0.31320  0.00010  1.0000
  C   C37       1.0  0.62142  0.33759  0.00010  1.0000
  C   C38       1.0  0.62180  0.36118  0.00010  1.0000
  C   C39       1.0  0.64541  0.38441  0.00010  1.0000
  C   C40       1.0  0.66863  0.38402  0.00010  1.0000
  C   C41       1.0  0.71430  0.33604  0.00010  1.0000
  C   C42       1.0  0.73790  0.35925  0.00010  1.0000
  C   C43       1.0  0.73828  0.38286  0.00010  1.0000
  C   C44       1.0  0.71506  0.38325  0.00010  1.0000
  C   C45       1.0  0.66708  0.28959  0.00010  1.0000
  C   C46       1.0  0.64348  0.26639  0.00010  1.0000
  C   C47       1.0  0.62026  0.26677  0.00010  1.0000
  C   C48       1.0  0.62064  0.29036  0.00010  1.0000
  C   C49       1.0  0.59665  0.24355  0.00010  1.0000
  C   C50       1.0  0.59626  0.21994  0.00010  1.0000
  C   C51       1.0  0.61948  0.21955  0.00010  1.0000
  C   C52       1.0  0.64309  0.24277  0.00010  1.0000
  C   C53       1.0  0.64580  0.40802  0.00010  1.0000
  C   C54       1.0  0.62258  0.40840  0.00010  1.0000
  C   C55       1.0  0.59897  0.38518  0.00010  1.0000
  C   C56       1.0  0.59858  0.36157  0.00010  1.0000
  H   H13       1.0  0.60394  0.32039  0.00010  1.0000
  H   H14       1.0  0.68610  0.40120  0.00010  1.0000
  H   H15       1.0  0.71400  0.31856  0.00010  1.0000
  H   H16       1.0  0.71535  0.40072  0.00010  1.0000
  H   H17       1.0  0.68427  0.28931  0.00010  1.0000
  H   H18       1.0  0.60345  0.29065  0.00010  1.0000
  H   H19       1.0  0.57946  0.24383  0.00010  1.0000
  O   O7        1.0  0.57327  0.19732  0.00010  1.0000
  O   O8        1.0  0.61911  0.19656  0.00010  1.0000
  H   H20       1.0  0.66028  0.24249  0.00010  1.0000
  H   H21       1.0  0.66327  0.42520  0.00010  1.0000
  O   O9        1.0  0.62295  0.43139  0.00010  1.0000
  O   O10       1.0  0.57635  0.38555  0.00010  1.0000
  H   H22       1.0  0.58111  0.34438  0.00010  1.0000
  C   C57       1.0  0.76189  0.40609  0.00010  1.0000
  C   C58       1.0  0.78511  0.40570  0.00010  1.0000
  C   C59       1.0  0.78472  0.38209  0.00010  1.0000
  C   C60       1.0  0.76111  0.35887  0.00010  1.0000
  H   H23       1.0  0.76218  0.42356  0.00010  1.0000
  O   O11       1.0  0.80810  0.42832  0.00010  1.0000
  O   O12       1.0  0.80734  0.38172  0.00010  1.0000
  H   H24       1.0  0.76083  0.34140  0.00010  1.0000
  C   C61       1.0  0.90013  0.44863  0.08132  1.0000
  C   C62       1.0  0.87667  0.43695  0.04069  1.0000
  C   C63       1.0  0.87667  0.43702  0.95982  1.0000
  C   C64       1.0  0.90013  0.44879  0.91917  1.0000
  C   C65       1.0  0.92289  0.46012  0.96156  1.0000
  C   C66       1.0  0.92289  0.46003  0.03891  1.0000
  C   C67       1.0  0.94846  0.47280  0.06307  1.0000
  N   N1        1.0  0.96500  0.48114  0.00010  1.0000
  C   C68       1.0  0.94846  0.47294  0.93738  1.0000
  N   N2        1.0  0.95492  0.47626  0.86325  1.0000
  C   C69       1.0  0.97996  0.48877  0.84411  1.0000
  N   N3        1.0  0.00119  0.49931  0.89310  1.0000
  C   C70       1.0  0.02242  0.50990  0.84413  1.0000
  C   C71       1.0  0.01426  0.50588  0.76842  1.0000
  C   C72       1.0  0.98813  0.49288  0.76840  1.0000
  N   N4        1.0  0.03737  0.51736  0.00010  1.0000
  C   C73       1.0  0.05392  0.52558  0.93738  1.0000
  N   N5        1.0  0.04746  0.52232  0.86325  1.0000
  C   C74       1.0  0.07949  0.53840  0.96155  1.0000
  C   C75       1.0  0.07949  0.53849  0.03890  1.0000
  C   C76       1.0  0.05391  0.52573  0.06307  1.0000
  C   C77       1.0  0.97382  0.48575  0.70101  1.0000
  C   C78       1.0  0.98756  0.49262  0.63158  1.0000
  C   C79       1.0  0.01488  0.50626  0.63161  1.0000
  C   C80       1.0  0.02859  0.51306  0.70108  1.0000
  C   C81       1.0  0.10224  0.54990  0.08130  1.0000
  C   C82       1.0  0.12570  0.56157  0.04068  1.0000
  C   C83       1.0  0.12570  0.56150  0.95981  1.0000
  C   C84       1.0  0.10225  0.54974  0.91917  1.0000
  N   N6        1.0  0.00119  0.49929  0.10734  1.0000
  C   C85       1.0  0.02242  0.51000  0.15631  1.0000
  N   N7        1.0  0.04745  0.52259  0.13719  1.0000
  C   C86       1.0  0.01426  0.50592  0.23202  1.0000
  C   C87       1.0  0.98813  0.49275  0.23203  1.0000
  C   C88       1.0  0.97996  0.48860  0.15632  1.0000
  C   C89       1.0  0.97382  0.48560  0.29941  1.0000
  C   C90       1.0  0.98755  0.49256  0.36885  1.0000
  C   C91       1.0  0.01487  0.50628  0.36882  1.0000
  C   C92       1.0  0.02859  0.51315  0.29936  1.0000
  N   N8        1.0  0.95492  0.47598  0.13719  1.0000
  H   H25       1.0  0.90044  0.44874  0.13589  1.0000
  O   O13       1.0  0.85687  0.42704  0.07432  1.0000
  O   O14       1.0  0.85687  0.42715  0.92622  1.0000
  H   H26       1.0  0.90043  0.44899  0.86460  1.0000
  H   H27       1.0  0.95539  0.47656  0.70187  1.0000
  O   O15       1.0  0.97621  0.48696  0.57295  1.0000
  O   O16       1.0  0.02624  0.51198  0.57302  1.0000
  H   H28       1.0  0.04702  0.52226  0.70199  1.0000
  H   H29       1.0  0.10194  0.54980  0.13587  1.0000
  O   O17       1.0  0.14550  0.57146  0.07430  1.0000
  O   O18       1.0  0.14550  0.57136  0.92620  1.0000
  H   H30       1.0  0.10195  0.54955  0.86460  1.0000
  H   H31       1.0  0.95538  0.47633  0.29854  1.0000
  O   O19       1.0  0.97620  0.48692  0.42747  1.0000
  O   O20       1.0  0.02623  0.51201  0.42743  1.0000
  H   H32       1.0  0.04702  0.52242  0.29844  1.0000
  Ni  Ni1       1.0  0.00118  0.49924  0.00010  1.0000
  C   C93       1.0  0.51057  0.03087  0.70093  1.0000
  C   C94       1.0  0.50376  0.01715  0.63148  1.0000
  C   C95       1.0  0.49017  0.98983  0.63147  1.0000
  C   C96       1.0  0.48334  0.97610  0.70092  1.0000
  C   C97       1.0  0.49046  0.99042  0.76829  1.0000
  C   C98       1.0  0.50343  0.01654  0.76830  1.0000
  C   C99       1.0  0.50749  0.02471  0.84401  1.0000
  N   N9        1.0  0.49694  0.00348  0.89297  1.0000
  C   C100      1.0  0.48640  0.98225  0.84400  1.0000
  N   N10       1.0  0.47398  0.95721  0.86313  1.0000
  C   C101      1.0  0.47073  0.95074  0.93726  1.0000
  N   N11       1.0  0.47894  0.96729  0.00010  1.0000
  C   C102      1.0  0.47063  0.95075  0.06296  1.0000
  C   C103      1.0  0.45792  0.92518  0.03880  1.0000
  C   C104      1.0  0.45797  0.92517  0.96145  1.0000
  N   N12       1.0  0.49698  0.00347  0.10723  1.0000
  C   C105      1.0  0.48631  0.98225  0.15621  1.0000
  N   N13       1.0  0.47376  0.95721  0.13709  1.0000
  C   C106      1.0  0.49044  0.99041  0.23192  1.0000
  C   C107      1.0  0.50358  0.01654  0.23192  1.0000
  C   C108      1.0  0.50769  0.02470  0.15620  1.0000
  C   C109      1.0  0.44662  0.90241  0.91909  1.0000
  C   C110      1.0  0.43489  0.87895  0.95976  1.0000
  C   C111      1.0  0.43488  0.87897  0.04063  1.0000
  C   C112      1.0  0.44655  0.90243  0.08123  1.0000
  C   C113      1.0  0.51078  0.03086  0.29928  1.0000
  C   C114      1.0  0.50386  0.01714  0.36873  1.0000
  C   C115      1.0  0.49013  0.98982  0.36873  1.0000
  C   C116      1.0  0.48324  0.97610  0.29930  1.0000
  N   N14       1.0  0.51510  0.03966  0.00010  1.0000
  C   C117      1.0  0.52346  0.05620  0.06295  1.0000
  N   N15       1.0  0.52030  0.04974  0.13707  1.0000
  C   C118      1.0  0.53624  0.08177  0.03880  1.0000
  C   C119      1.0  0.53615  0.08178  0.96145  1.0000
  C   C120      1.0  0.52329  0.05620  0.93727  1.0000
  C   C121      1.0  0.54753  0.10454  0.91907  1.0000
  C   C122      1.0  0.55935  0.12799  0.95973  1.0000
  C   C123      1.0  0.55941  0.12798  0.04061  1.0000
  C   C124      1.0  0.54768  0.10452  0.08122  1.0000
  N   N16       1.0  0.51996  0.04974  0.86314  1.0000
  H   H33       1.0  0.51974  0.04930  0.70183  1.0000
  O   O21       1.0  0.50942  0.02850  0.57286  1.0000
  O   O22       1.0  0.48453  0.97848  0.57285  1.0000
  H   H34       1.0  0.47418  0.95767  0.70181  1.0000
  H   H35       1.0  0.44679  0.90270  0.86452  1.0000
  O   O23       1.0  0.42500  0.85915  0.92618  1.0000
  O   O24       1.0  0.42502  0.85917  0.07428  1.0000
  H   H36       1.0  0.44669  0.90274  0.13580  1.0000
  H   H37       1.0  0.52005  0.04929  0.29838  1.0000
  O   O25       1.0  0.50953  0.02850  0.42733  1.0000
  O   O26       1.0  0.48441  0.97847  0.42735  1.0000
  H   H38       1.0  0.47398  0.95766  0.29842  1.0000
  H   H39       1.0  0.54733  0.10424  0.86450  1.0000
  O   O27       1.0  0.56928  0.14779  0.92614  1.0000
  O   O28       1.0  0.56935  0.14778  0.07424  1.0000
  H   H40       1.0  0.54758  0.10421  0.13579  1.0000
  Ni  Ni2       1.0  0.49696  0.00348  0.00010  1.0000
  C   C125      1.0  0.49180  0.52148  0.29958  1.0000
  C   C126      1.0  0.49861  0.51457  0.36904  1.0000
  C   C127      1.0  0.51219  0.50084  0.36905  1.0000
  C   C128      1.0  0.51902  0.49394  0.29960  1.0000
  C   C129      1.0  0.51191  0.50114  0.23222  1.0000
  C   C130      1.0  0.49894  0.51429  0.23222  1.0000
  C   C131      1.0  0.49488  0.51840  0.15651  1.0000
  N   N17       1.0  0.50542  0.50771  0.10754  1.0000
  C   C132      1.0  0.51597  0.49703  0.15652  1.0000
  N   N18       1.0  0.52839  0.48441  0.13739  1.0000
  C   C133      1.0  0.53163  0.48119  0.06326  1.0000
  N   N19       1.0  0.52343  0.48954  0.00010  1.0000
  C   C134      1.0  0.53173  0.48130  0.93756  1.0000
  C   C135      1.0  0.54445  0.46844  0.96172  1.0000
  C   C136      1.0  0.54440  0.46839  0.03907  1.0000
  N   N20       1.0  0.50538  0.50767  0.89329  1.0000
  C   C137      1.0  0.51606  0.49712  0.84430  1.0000
  N   N21       1.0  0.52860  0.48463  0.86343  1.0000
  C   C138      1.0  0.51193  0.50116  0.76859  1.0000
  C   C139      1.0  0.49878  0.51414  0.76860  1.0000
  C   C140      1.0  0.49468  0.51820  0.84431  1.0000
  C   C141      1.0  0.55575  0.45697  0.08143  1.0000
  C   C142      1.0  0.56748  0.44525  0.04076  1.0000
  C   C143      1.0  0.56749  0.44527  0.95989  1.0000
  C   C144      1.0  0.55581  0.45706  0.91929  1.0000
  C   C145      1.0  0.49158  0.52126  0.70124  1.0000
  C   C146      1.0  0.49851  0.51447  0.63179  1.0000
  C   C147      1.0  0.51224  0.50088  0.63179  1.0000
  C   C148      1.0  0.51913  0.49404  0.70122  1.0000
  N   N22       1.0  0.48727  0.52574  0.00010  1.0000
  C   C149      1.0  0.47890  0.53392  0.93756  1.0000
  N   N23       1.0  0.48206  0.53062  0.86344  1.0000
  C   C150      1.0  0.46612  0.54671  0.96172  1.0000
  C   C151      1.0  0.46622  0.54681  0.03906  1.0000
  C   C152      1.0  0.47908  0.53409  0.06325  1.0000
  C   C153      1.0  0.45484  0.55819  0.08144  1.0000
  C   C154      1.0  0.44302  0.56982  0.04078  1.0000
  C   C155      1.0  0.44296  0.56976  0.95990  1.0000
  C   C156      1.0  0.45469  0.55802  0.91929  1.0000
  N   N24       1.0  0.48241  0.53097  0.13737  1.0000
  H   H41       1.0  0.48263  0.53074  0.29868  1.0000
  O   O29       1.0  0.49295  0.52026  0.42765  1.0000
  O   O30       1.0  0.51784  0.49513  0.42767  1.0000
  H   H42       1.0  0.52819  0.48467  0.29871  1.0000
  H   H43       1.0  0.55558  0.45710  0.13600  1.0000
  O   O31       1.0  0.57737  0.43534  0.07435  1.0000
  O   O32       1.0  0.57735  0.43534  0.92625  1.0000
  H   H44       1.0  0.55568  0.45724  0.86472  1.0000
  H   H45       1.0  0.48231  0.53042  0.70213  1.0000
  O   O33       1.0  0.49284  0.52015  0.57318  1.0000
  O   O34       1.0  0.51795  0.49524  0.57317  1.0000
  H   H46       1.0  0.52839  0.48487  0.70210  1.0000
  H   H47       1.0  0.45504  0.55810  0.13601  1.0000
  O   O35       1.0  0.43309  0.57969  0.07437  1.0000
  O   O36       1.0  0.43302  0.57961  0.92627  1.0000
  H   H48       1.0  0.45479  0.55781  0.86472  1.0000
  Ni  Ni3       1.0  0.50541  0.50770  0.00010  1.0000
  Cu  Cu1       1.0  0.00122  0.49947  0.50022  1.0000
  Cu  Cu2       1.0  0.49697  0.00349  0.50010  1.0000
  Cu  Cu3       1.0  0.50539  0.50770  0.50042  1.0000
  Zn  Zn1       1.0  0.17008  0.58494  0.00010  1.0000
  Zn  Zn2       1.0  0.58275  0.17236  0.00010  1.0000
  Zn  Zn3       1.0  0.41962  0.59079  0.00010  1.0000
  Zn  Zn4       1.0  0.83229  0.41605  0.00010  1.0000
  Zn  Zn5       1.0  0.41387  0.83458  0.00010  1.0000
  Zn  Zn6       1.0  0.58850  0.42190  0.00010  1.0000
