data_image0
_chemical_formula_structural       C18HO2H2O2H2O2HC18HO2H2O2H2O2HC7NCNCNC3NCNC11NCNC7NHO2H2O2H2O2H2O2HNiC7NCNCNC3NCNC11NCNC7NHO2H2O2H2O2H2O2HNiC7NCNCNC3NCNC11NCNC7NHO2H2O2H2O2H2O2HNiCu3Zn6
_chemical_formula_sum              "C132 H36 O36 N24 Ni3 Cu3 Zn6"
_cell_length_a       54.5507
_cell_length_b       54.5472
_cell_length_c       19.2397
_cell_angle_alpha    89.9992
_cell_angle_beta     90.0011
_cell_angle_gamma    120

_space_group_name_H-M_alt    "P 1"
_space_group_IT_number       1

loop_
  _space_group_symop_operation_xyz
  'x, y, z'

loop_
  _atom_site_type_symbol
  _atom_site_label
  _atom_site_symmetry_multiplicity
  _atom_site_fract_x
  _atom_site_fract_y
  _atom_site_fract_z
  _atom_site_occupancy
  C   C1        1.0  0.36996  0.69719  0.00010  1.0000
  C   C2        1.0  0.34405  0.69669  0.00010  1.0000
  C   C3        1.0  0.31864  0.67078  0.00010  1.0000
  C   C4        1.0  0.31914  0.64537  0.00010  1.0000
  C   C5        1.0  0.34505  0.64587  0.00010  1.0000
  C   C6        1.0  0.37046  0.67178  0.00010  1.0000
  C   C7        1.0  0.29373  0.61945  0.00010  1.0000
  C   C8        1.0  0.26782  0.61895  0.00010  1.0000
  C   C9        1.0  0.26732  0.64437  0.00010  1.0000
  C   C10       1.0  0.29273  0.67028  0.00010  1.0000
  C   C11       1.0  0.39537  0.72310  0.00010  1.0000
  C   C12       1.0  0.39487  0.74851  0.00010  1.0000
  C   C13       1.0  0.36896  0.74801  0.00010  1.0000
  C   C14       1.0  0.34355  0.72210  0.00010  1.0000
  C   C15       1.0  0.39637  0.67228  0.00010  1.0000
  C   C16       1.0  0.39687  0.64686  0.00010  1.0000
  C   C17       1.0  0.37146  0.62095  0.00010  1.0000
  C   C18       1.0  0.34555  0.62045  0.00010  1.0000
  H   H1        1.0  0.29410  0.60039  0.00010  1.0000
  O   O1        1.0  0.24495  0.59563  0.00010  1.0000
  O   O2        1.0  0.24400  0.64392  0.00010  1.0000
  H   H2        1.0  0.29236  0.68934  0.00010  1.0000
  H   H3        1.0  0.41481  0.72348  0.00010  1.0000
  O   O3        1.0  0.41774  0.77184  0.00010  1.0000
  O   O4        1.0  0.36851  0.77089  0.00010  1.0000
  H   H4        1.0  0.32412  0.72173  0.00010  1.0000
  H   H5        1.0  0.41543  0.69171  0.00010  1.0000
  O   O5        1.0  0.42019  0.64731  0.00010  1.0000
  O   O6        1.0  0.37191  0.59808  0.00010  1.0000
  H   H6        1.0  0.32649  0.60102  0.00010  1.0000
  C   C19       1.0  0.65199  0.31255  0.00010  1.0000
  C   C20       1.0  0.67740  0.31205  0.00010  1.0000
  C   C21       1.0  0.70331  0.33746  0.00010  1.0000
  C   C22       1.0  0.70381  0.36337  0.00010  1.0000
  C   C23       1.0  0.67840  0.36387  0.00010  1.0000
  C   C24       1.0  0.65249  0.33846  0.00010  1.0000
  C   C25       1.0  0.72972  0.38878  0.00010  1.0000
  C   C26       1.0  0.75513  0.38828  0.00010  1.0000
  C   C27       1.0  0.75463  0.36237  0.00010  1.0000
  C   C28       1.0  0.72872  0.33696  0.00010  1.0000
  C   C29       1.0  0.62608  0.28714  0.00010  1.0000
  C   C30       1.0  0.62558  0.26122  0.00010  1.0000
  C   C31       1.0  0.65099  0.26072  0.00010  1.0000
  C   C32       1.0  0.67690  0.28614  0.00010  1.0000
  C   C33       1.0  0.62708  0.33896  0.00010  1.0000
  C   C34       1.0  0.62758  0.36487  0.00010  1.0000
  C   C35       1.0  0.65349  0.39029  0.00010  1.0000
  C   C36       1.0  0.67890  0.38979  0.00010  1.0000
  H   H7        1.0  0.73010  0.40822  0.00010  1.0000
  O   O7        1.0  0.77845  0.41115  0.00010  1.0000
  O   O8        1.0  0.77750  0.36192  0.00010  1.0000
  H   H8        1.0  0.72834  0.31752  0.00010  1.0000
  H   H9        1.0  0.60702  0.28751  0.00010  1.0000
  O   O9        1.0  0.60226  0.23835  0.00010  1.0000
  O   O10       1.0  0.65054  0.23740  0.00010  1.0000
  H   H10       1.0  0.69596  0.28576  0.00010  1.0000
  H   H11       1.0  0.60765  0.31990  0.00010  1.0000
  O   O11       1.0  0.60471  0.36532  0.00010  1.0000
  O   O12       1.0  0.65394  0.41361  0.00010  1.0000
  H   H12       1.0  0.69833  0.40884  0.00010  1.0000
  C   C37       1.0  0.88939  0.43861  0.08155  1.0000
  C   C38       1.0  0.86110  0.42452  0.04093  1.0000
  C   C39       1.0  0.86110  0.42461  0.96005  1.0000
  C   C40       1.0  0.88939  0.43880  0.91940  1.0000
  C   C41       1.0  0.91682  0.45246  0.96179  1.0000
  C   C42       1.0  0.91682  0.45235  0.03914  1.0000
  C   C43       1.0  0.94766  0.46774  0.06331  1.0000
  N   N1        1.0  0.96760  0.47779  0.00010  1.0000
  C   C44       1.0  0.94765  0.46791  0.93762  1.0000
  N   N2        1.0  0.95545  0.47192  0.86349  1.0000
  C   C45       1.0  0.98563  0.48700  0.84435  1.0000
  N   N3        1.0  0.01123  0.49971  0.89334  1.0000
  C   C46       1.0  0.03683  0.51247  0.84437  1.0000
  C   C47       1.0  0.02699  0.50763  0.76866  1.0000
  C   C48       1.0  0.99549  0.49195  0.76864  1.0000
  N   N4        1.0  0.05486  0.52147  0.00010  1.0000
  C   C49       1.0  0.07480  0.53137  0.93762  1.0000
  N   N5        1.0  0.06702  0.52744  0.86350  1.0000
  C   C50       1.0  0.10564  0.54684  0.96180  1.0000
  C   C51       1.0  0.10563  0.54694  0.03914  1.0000
  C   C52       1.0  0.07480  0.53155  0.06331  1.0000
  C   C53       1.0  0.97823  0.48336  0.70125  1.0000
  C   C54       1.0  0.99480  0.49164  0.63182  1.0000
  C   C55       1.0  0.02773  0.50809  0.63185  1.0000
  C   C56       1.0  0.04427  0.51629  0.70132  1.0000
  C   C57       1.0  0.13307  0.56070  0.08155  1.0000
  C   C58       1.0  0.16135  0.57477  0.04093  1.0000
  C   C59       1.0  0.16135  0.57468  0.96006  1.0000
  C   C60       1.0  0.13308  0.56051  0.91941  1.0000
  N   N6        1.0  0.01123  0.49968  0.10758  1.0000
  C   C61       1.0  0.03682  0.51260  0.15655  1.0000
  N   N7        1.0  0.06701  0.52778  0.13743  1.0000
  C   C62       1.0  0.02699  0.50767  0.23225  1.0000
  C   C63       1.0  0.99549  0.49180  0.23227  1.0000
  C   C64       1.0  0.98564  0.48680  0.15655  1.0000
  C   C65       1.0  0.97823  0.48317  0.29965  1.0000
  C   C66       1.0  0.99479  0.49157  0.36908  1.0000
  C   C67       1.0  0.02772  0.50811  0.36906  1.0000
  C   C68       1.0  0.04426  0.51639  0.29960  1.0000
  N   N8        1.0  0.95545  0.47157  0.13743  1.0000
  H   H13       1.0  0.88976  0.43873  0.13612  1.0000
  O   O13       1.0  0.83723  0.41257  0.07455  1.0000
  O   O14       1.0  0.83723  0.41271  0.92645  1.0000
  H   H14       1.0  0.88975  0.43904  0.86484  1.0000
  H   H15       1.0  0.95601  0.47228  0.70211  1.0000
  O   O15       1.0  0.98112  0.48481  0.57319  1.0000
  O   O16       1.0  0.04144  0.51498  0.57326  1.0000
  H   H16       1.0  0.06649  0.52737  0.70224  1.0000
  H   H17       1.0  0.13270  0.56058  0.13611  1.0000
  O   O17       1.0  0.18522  0.58669  0.07455  1.0000
  O   O18       1.0  0.18523  0.58657  0.92645  1.0000
  H   H18       1.0  0.13272  0.56028  0.86484  1.0000
  H   H19       1.0  0.95600  0.47200  0.29877  1.0000
  O   O19       1.0  0.98110  0.48476  0.42771  1.0000
  O   O20       1.0  0.04142  0.51502  0.42767  1.0000
  H   H20       1.0  0.06649  0.52756  0.29868  1.0000
  Ni  Ni1       1.0  0.01122  0.49962  0.00010  1.0000
  C   C69       1.0  0.52264  0.03765  0.70122  1.0000
  C   C70       1.0  0.51442  0.02110  0.63176  1.0000
  C   C71       1.0  0.49804  0.98816  0.63175  1.0000
  C   C72       1.0  0.48981  0.97161  0.70121  1.0000
  C   C73       1.0  0.49839  0.98887  0.76858  1.0000
  C   C74       1.0  0.51403  0.02038  0.76858  1.0000
  C   C75       1.0  0.51892  0.03022  0.84429  1.0000
  N   N9        1.0  0.50621  0.00462  0.89326  1.0000
  C   C76       1.0  0.49350  0.97903  0.84429  1.0000
  N   N10       1.0  0.47852  0.94883  0.86342  1.0000
  C   C77       1.0  0.47460  0.94104  0.93755  1.0000
  N   N11       1.0  0.48449  0.96099  0.00010  1.0000
  C   C78       1.0  0.47448  0.94105  0.06324  1.0000
  C   C79       1.0  0.45915  0.91021  0.03909  1.0000
  C   C80       1.0  0.45921  0.91020  0.96174  1.0000
  N   N12       1.0  0.50626  0.00462  0.10751  1.0000
  C   C81       1.0  0.49339  0.97903  0.15650  1.0000
  N   N13       1.0  0.47826  0.94884  0.13737  1.0000
  C   C82       1.0  0.49836  0.98887  0.23220  1.0000
  C   C83       1.0  0.51422  0.02037  0.23220  1.0000
  C   C84       1.0  0.51916  0.03022  0.15648  1.0000
  C   C85       1.0  0.44552  0.88276  0.91938  1.0000
  C   C86       1.0  0.43138  0.85448  0.96005  1.0000
  C   C87       1.0  0.43137  0.85449  0.04092  1.0000
  C   C88       1.0  0.44545  0.88279  0.08151  1.0000
  C   C89       1.0  0.52289  0.03764  0.29956  1.0000
  C   C90       1.0  0.51455  0.02110  0.36900  1.0000
  C   C91       1.0  0.49799  0.98816  0.36901  1.0000
  C   C92       1.0  0.48968  0.97161  0.29958  1.0000
  N   N14       1.0  0.52810  0.04825  0.00010  1.0000
  C   C93       1.0  0.53818  0.06819  0.06323  1.0000
  N   N15       1.0  0.53438  0.06040  0.13735  1.0000
  C   C94       1.0  0.55359  0.09903  0.03908  1.0000
  C   C95       1.0  0.55348  0.09903  0.96173  1.0000
  C   C96       1.0  0.53798  0.06820  0.93755  1.0000
  C   C97       1.0  0.56720  0.12647  0.91935  1.0000
  C   C98       1.0  0.58145  0.15475  0.96001  1.0000
  C   C99       1.0  0.58152  0.15474  0.04089  1.0000
  C   C100      1.0  0.56739  0.12645  0.08150  1.0000
  N   N16       1.0  0.53395  0.06040  0.86342  1.0000
  H   H21       1.0  0.53369  0.05987  0.70212  1.0000
  O   O21       1.0  0.52125  0.03480  0.57315  1.0000
  O   O22       1.0  0.49123  0.97448  0.57313  1.0000
  H   H22       1.0  0.47876  0.94938  0.70210  1.0000
  H   H23       1.0  0.44573  0.88311  0.86481  1.0000
  O   O23       1.0  0.41945  0.83060  0.92646  1.0000
  O   O24       1.0  0.41948  0.83063  0.07456  1.0000
  H   H24       1.0  0.44561  0.88316  0.13608  1.0000
  H   H25       1.0  0.53407  0.05987  0.29866  1.0000
  O   O25       1.0  0.52139  0.03479  0.42761  1.0000
  O   O26       1.0  0.49110  0.97448  0.42763  1.0000
  H   H26       1.0  0.47852  0.94939  0.29870  1.0000
  H   H27       1.0  0.56696  0.12612  0.86478  1.0000
  O   O27       1.0  0.59343  0.17863  0.92642  1.0000
  O   O28       1.0  0.59352  0.17861  0.07452  1.0000
  H   H28       1.0  0.56726  0.12608  0.13607  1.0000
  Ni  Ni2       1.0  0.50622  0.00462  0.00010  1.0000
  C   C101      1.0  0.49981  0.52624  0.29986  1.0000
  C   C102      1.0  0.50803  0.51790  0.36932  1.0000
  C   C103      1.0  0.52441  0.50135  0.36933  1.0000
  C   C104      1.0  0.53264  0.49303  0.29988  1.0000
  C   C105      1.0  0.52407  0.50171  0.23251  1.0000
  C   C106      1.0  0.50842  0.51757  0.23250  1.0000
  C   C107      1.0  0.50353  0.52252  0.15679  1.0000
  N   N17       1.0  0.51624  0.50964  0.10783  1.0000
  C   C108      1.0  0.52896  0.49676  0.15680  1.0000
  N   N18       1.0  0.54394  0.48155  0.13767  1.0000
  C   C109      1.0  0.54785  0.47767  0.06354  1.0000
  N   N19       1.0  0.53796  0.48772  0.00010  1.0000
  C   C110      1.0  0.54797  0.47779  0.93784  1.0000
  C   C111      1.0  0.56330  0.46229  0.96200  1.0000
  C   C112      1.0  0.56324  0.46222  0.03935  1.0000
  N   N20       1.0  0.51620  0.50959  0.89357  1.0000
  C   C113      1.0  0.52906  0.49687  0.84459  1.0000
  N   N21       1.0  0.54419  0.48181  0.86371  1.0000
  C   C114      1.0  0.52409  0.50174  0.76888  1.0000
  C   C115      1.0  0.50824  0.51739  0.76889  1.0000
  C   C116      1.0  0.50329  0.52228  0.84460  1.0000
  C   C117      1.0  0.57693  0.44846  0.08171  1.0000
  C   C118      1.0  0.59107  0.43433  0.04104  1.0000
  C   C119      1.0  0.59108  0.43435  0.96017  1.0000
  C   C120      1.0  0.57700  0.44857  0.91957  1.0000
  C   C121      1.0  0.49956  0.52598  0.70153  1.0000
  C   C122      1.0  0.50790  0.51778  0.63208  1.0000
  C   C123      1.0  0.52446  0.50140  0.63207  1.0000
  C   C124      1.0  0.53277  0.49315  0.70151  1.0000
  N   N22       1.0  0.49436  0.53138  0.00010  1.0000
  C   C125      1.0  0.48427  0.54123  0.93785  1.0000
  N   N23       1.0  0.48808  0.53725  0.86373  1.0000
  C   C126      1.0  0.46886  0.55666  0.96200  1.0000
  C   C127      1.0  0.46898  0.55678  0.03935  1.0000
  C   C128      1.0  0.48447  0.54144  0.06353  1.0000
  C   C129      1.0  0.45525  0.57050  0.08173  1.0000
  C   C130      1.0  0.44100  0.58452  0.04107  1.0000
  C   C131      1.0  0.44093  0.58444  0.96019  1.0000
  C   C132      1.0  0.45507  0.57029  0.91958  1.0000
  N   N24       1.0  0.48850  0.53767  0.13766  1.0000
  H   H29       1.0  0.48876  0.53741  0.29896  1.0000
  O   O29       1.0  0.50120  0.52477  0.42793  1.0000
  O   O30       1.0  0.53122  0.49447  0.42795  1.0000
  H   H30       1.0  0.54369  0.48185  0.29899  1.0000
  H   H31       1.0  0.57673  0.44861  0.13628  1.0000
  O   O31       1.0  0.60300  0.42238  0.07462  1.0000
  O   O32       1.0  0.60297  0.42238  0.92652  1.0000
  H   H32       1.0  0.57684  0.44878  0.86501  1.0000
  H   H33       1.0  0.48838  0.53702  0.70242  1.0000
  O   O33       1.0  0.50107  0.52463  0.57347  1.0000
  O   O34       1.0  0.53135  0.49461  0.57346  1.0000
  H   H34       1.0  0.54393  0.48210  0.70238  1.0000
  H   H35       1.0  0.45550  0.57038  0.13630  1.0000
  O   O35       1.0  0.42902  0.59642  0.07466  1.0000
  O   O36       1.0  0.42894  0.59632  0.92656  1.0000
  H   H36       1.0  0.45519  0.57004  0.86501  1.0000
  Ni  Ni3       1.0  0.51623  0.50963  0.00010  1.0000
  Cu  Cu1       1.0  0.01127  0.49989  0.50046  1.0000
  Cu  Cu2       1.0  0.50624  0.00464  0.50038  1.0000
  Cu  Cu3       1.0  0.51621  0.50962  0.50070  1.0000
  Zn  Zn1       1.0  0.21485  0.60320  0.00010  1.0000
  Zn  Zn2       1.0  0.60993  0.20825  0.00010  1.0000
  Zn  Zn3       1.0  0.41251  0.60953  0.00010  1.0000
  Zn  Zn4       1.0  0.80760  0.39959  0.00010  1.0000
  Zn  Zn5       1.0  0.40630  0.80099  0.00010  1.0000
  Zn  Zn6       1.0  0.61615  0.40592  0.00010  1.0000
