data_image0
_chemical_formula_structural       C26H7O2H2O2HC4HO2HC26H7O2H2O2HC4HO2HC26H7O2H2O2HC4HO2HC26H7O2H2O2HC4HO2HC26H7O2H2O2HC4HO2HC26H7O2H2O2HC4HO2HC26H7O2H2O2HC4HO2HC26H7O2H2O2HC4HO2HCu8Zn4
_chemical_formula_sum              "C240 H96 O48 Cu8 Zn4"
_cell_length_a       32.4497
_cell_length_b       32.4498
_cell_length_c       112.409
_cell_angle_alpha    90
_cell_angle_beta     90
_cell_angle_gamma    90

_space_group_name_H-M_alt    "P 1"
_space_group_IT_number       1

loop_
  _space_group_symop_operation_xyz
  'x, y, z'

loop_
  _atom_site_type_symbol
  _atom_site_label
  _atom_site_symmetry_multiplicity
  _atom_site_fract_x
  _atom_site_fract_y
  _atom_site_fract_z
  _atom_site_occupancy
  C   C1        1.0  0.00010  0.72628  0.05353  1.0000
  C   C2        1.0  0.00010  0.77372  0.05353  1.0000
  C   C3        1.0  0.00010  0.79745  0.04167  1.0000
  C   C4        1.0  0.00010  0.77374  0.02981  1.0000
  C   C5        1.0  0.00010  0.72627  0.02980  1.0000
  C   C6        1.0  0.00010  0.70254  0.04167  1.0000
  C   C7        1.0  0.00010  0.79747  0.01794  1.0000
  C   C8        1.0  0.00010  0.84491  0.01794  1.0000
  C   C9        1.0  0.00010  0.86864  0.02980  1.0000
  C   C10       1.0  0.00010  0.84492  0.04167  1.0000
  C   C11       1.0  0.00010  0.70255  0.06540  1.0000
  C   C12       1.0  0.00010  0.72626  0.07726  1.0000
  C   C13       1.0  0.00010  0.77373  0.07726  1.0000
  C   C14       1.0  0.00010  0.79746  0.06540  1.0000
  C   C15       1.0  0.00010  0.65508  0.04167  1.0000
  C   C16       1.0  0.00010  0.63137  0.02981  1.0000
  C   C17       1.0  0.00010  0.65509  0.01794  1.0000
  C   C18       1.0  0.00010  0.70253  0.01794  1.0000
  C   C19       1.0  0.00010  0.63136  0.00608  1.0000
  C   C20       1.0  0.00010  0.58389  0.00607  1.0000
  C   C21       1.0  0.00010  0.56016  0.01794  1.0000
  C   C22       1.0  0.00010  0.58390  0.02980  1.0000
  C   C23       1.0  0.00010  0.91611  0.02981  1.0000
  C   C24       1.0  0.00010  0.93984  0.01794  1.0000
  C   C25       1.0  0.00010  0.91610  0.00608  1.0000
  C   C26       1.0  0.00010  0.86864  0.00607  1.0000
  H   H1        1.0  0.00010  0.77988  0.00916  1.0000
  H   H2        1.0  0.00010  0.86247  0.05045  1.0000
  H   H3        1.0  0.00010  0.66740  0.06540  1.0000
  H   H4        1.0  0.00010  0.83258  0.06540  1.0000
  H   H5        1.0  0.00010  0.63751  0.05045  1.0000
  H   H6        1.0  0.00010  0.72010  0.00916  1.0000
  H   H7        1.0  0.00010  0.64892  0.99729  1.0000
  O   O1        1.0  0.00010  0.56078  0.99452  1.0000
  O   O2        1.0  0.00010  0.51394  0.01794  1.0000
  H   H8        1.0  0.00010  0.56633  0.03859  1.0000
  H   H9        1.0  0.00010  0.93367  0.03859  1.0000
  O   O3        1.0  0.00010  0.98606  0.01794  1.0000
  O   O4        1.0  0.00010  0.93921  0.99452  1.0000
  H   H10       1.0  0.00010  0.85108  0.99729  1.0000
  C   C27       1.0  0.00010  0.79747  0.08913  1.0000
  C   C28       1.0  0.00010  0.77374  0.10099  1.0000
  C   C29       1.0  0.00010  0.72627  0.10099  1.0000
  C   C30       1.0  0.00010  0.70253  0.08913  1.0000
  H   H11       1.0  0.00010  0.83259  0.08913  1.0000
  O   O5        1.0  0.00010  0.79685  0.11255  1.0000
  O   O6        1.0  0.00010  0.70316  0.11255  1.0000
  H   H12       1.0  0.00010  0.66741  0.08913  1.0000
  C   C31       1.0  0.45254  0.75000  0.29166  1.0000
  C   C32       1.0  0.47627  0.75000  0.27980  1.0000
  C   C33       1.0  0.52372  0.75000  0.27980  1.0000
  C   C34       1.0  0.54745  0.75000  0.29166  1.0000
  C   C35       1.0  0.52372  0.75000  0.30353  1.0000
  C   C36       1.0  0.47627  0.75000  0.30353  1.0000
  C   C37       1.0  0.59491  0.75000  0.29166  1.0000
  C   C38       1.0  0.61864  0.75000  0.27980  1.0000
  C   C39       1.0  0.59491  0.75000  0.26794  1.0000
  C   C40       1.0  0.54745  0.75000  0.26794  1.0000
  C   C41       1.0  0.40508  0.75000  0.29166  1.0000
  C   C42       1.0  0.38135  0.75000  0.27980  1.0000
  C   C43       1.0  0.40508  0.75000  0.26794  1.0000
  C   C44       1.0  0.45254  0.75000  0.26794  1.0000
  C   C45       1.0  0.45254  0.75000  0.31540  1.0000
  C   C46       1.0  0.47627  0.75000  0.32726  1.0000
  C   C47       1.0  0.52372  0.75000  0.32726  1.0000
  C   C48       1.0  0.54745  0.75000  0.31540  1.0000
  C   C49       1.0  0.54745  0.75000  0.33912  1.0000
  C   C50       1.0  0.52372  0.75000  0.35099  1.0000
  C   C51       1.0  0.47627  0.75000  0.35099  1.0000
  C   C52       1.0  0.45254  0.75000  0.33912  1.0000
  C   C53       1.0  0.61864  0.75000  0.25607  1.0000
  C   C54       1.0  0.66610  0.75000  0.25607  1.0000
  C   C55       1.0  0.68983  0.75000  0.26794  1.0000
  C   C56       1.0  0.66610  0.75000  0.27980  1.0000
  H   H13       1.0  0.61248  0.75000  0.30045  1.0000
  H   H14       1.0  0.52989  0.75000  0.25916  1.0000
  H   H15       1.0  0.38751  0.75000  0.30045  1.0000
  H   H16       1.0  0.47010  0.75000  0.25916  1.0000
  H   H17       1.0  0.41741  0.75000  0.31540  1.0000
  H   H18       1.0  0.58258  0.75000  0.31540  1.0000
  H   H19       1.0  0.58258  0.75000  0.33912  1.0000
  O   O7        1.0  0.54684  0.75000  0.36255  1.0000
  O   O8        1.0  0.45315  0.75000  0.36255  1.0000
  H   H20       1.0  0.41741  0.75000  0.33912  1.0000
  H   H21       1.0  0.60107  0.75000  0.24729  1.0000
  O   O9        1.0  0.68921  0.75000  0.24451  1.0000
  O   O10       1.0  0.73605  0.75000  0.26794  1.0000
  H   H22       1.0  0.68366  0.75000  0.28858  1.0000
  C   C57       1.0  0.38135  0.75000  0.25607  1.0000
  C   C58       1.0  0.33389  0.75000  0.25607  1.0000
  C   C59       1.0  0.31016  0.75000  0.26794  1.0000
  C   C60       1.0  0.33389  0.75000  0.27980  1.0000
  H   H23       1.0  0.39892  0.75000  0.24729  1.0000
  O   O11       1.0  0.31078  0.75000  0.24451  1.0000
  O   O12       1.0  0.26394  0.75000  0.26794  1.0000
  H   H24       1.0  0.31633  0.75000  0.28858  1.0000
  C   C61       1.0  0.50000  0.22628  0.55353  1.0000
  C   C62       1.0  0.50000  0.27372  0.55353  1.0000
  C   C63       1.0  0.50000  0.29745  0.54167  1.0000
  C   C64       1.0  0.50000  0.27374  0.52981  1.0000
  C   C65       1.0  0.50000  0.22627  0.52980  1.0000
  C   C66       1.0  0.50000  0.20254  0.54167  1.0000
  C   C67       1.0  0.50000  0.29747  0.51794  1.0000
  C   C68       1.0  0.50000  0.34491  0.51794  1.0000
  C   C69       1.0  0.50000  0.36864  0.52980  1.0000
  C   C70       1.0  0.50000  0.34492  0.54167  1.0000
  C   C71       1.0  0.50000  0.20255  0.56540  1.0000
  C   C72       1.0  0.50000  0.22626  0.57726  1.0000
  C   C73       1.0  0.50000  0.27373  0.57726  1.0000
  C   C74       1.0  0.50000  0.29746  0.56540  1.0000
  C   C75       1.0  0.50000  0.15508  0.54167  1.0000
  C   C76       1.0  0.50000  0.13137  0.52981  1.0000
  C   C77       1.0  0.50000  0.15509  0.51794  1.0000
  C   C78       1.0  0.50000  0.20253  0.51794  1.0000
  C   C79       1.0  0.50000  0.13136  0.50608  1.0000
  C   C80       1.0  0.50000  0.08389  0.50607  1.0000
  C   C81       1.0  0.50000  0.06016  0.51794  1.0000
  C   C82       1.0  0.50000  0.08390  0.52980  1.0000
  C   C83       1.0  0.50000  0.41611  0.52981  1.0000
  C   C84       1.0  0.50000  0.43984  0.51794  1.0000
  C   C85       1.0  0.50000  0.41610  0.50608  1.0000
  C   C86       1.0  0.50000  0.36864  0.50607  1.0000
  H   H25       1.0  0.50000  0.27988  0.50916  1.0000
  H   H26       1.0  0.50000  0.36247  0.55045  1.0000
  H   H27       1.0  0.50000  0.16740  0.56540  1.0000
  H   H28       1.0  0.50000  0.33258  0.56540  1.0000
  H   H29       1.0  0.50000  0.13751  0.55045  1.0000
  H   H30       1.0  0.50000  0.22010  0.50916  1.0000
  H   H31       1.0  0.50000  0.14892  0.49729  1.0000
  O   O13       1.0  0.50000  0.06078  0.49452  1.0000
  O   O14       1.0  0.50000  0.01394  0.51794  1.0000
  H   H32       1.0  0.50000  0.06633  0.53859  1.0000
  H   H33       1.0  0.50000  0.43367  0.53859  1.0000
  O   O15       1.0  0.50000  0.48606  0.51794  1.0000
  O   O16       1.0  0.50000  0.43921  0.49452  1.0000
  H   H34       1.0  0.50000  0.35108  0.49729  1.0000
  C   C87       1.0  0.50000  0.29747  0.58913  1.0000
  C   C88       1.0  0.50000  0.27374  0.60099  1.0000
  C   C89       1.0  0.50000  0.22627  0.60099  1.0000
  C   C90       1.0  0.50000  0.20253  0.58913  1.0000
  H   H35       1.0  0.50000  0.33259  0.58913  1.0000
  O   O17       1.0  0.50000  0.29685  0.61255  1.0000
  O   O18       1.0  0.50000  0.20316  0.61255  1.0000
  H   H36       1.0  0.50000  0.16741  0.58913  1.0000
  C   C91       1.0  0.95263  0.25000  0.79166  1.0000
  C   C92       1.0  0.97636  0.25000  0.77980  1.0000
  C   C93       1.0  0.02382  0.25000  0.77980  1.0000
  C   C94       1.0  0.04755  0.25000  0.79166  1.0000
  C   C95       1.0  0.02382  0.25000  0.80353  1.0000
  C   C96       1.0  0.97636  0.25000  0.80353  1.0000
  C   C97       1.0  0.09501  0.25000  0.79166  1.0000
  C   C98       1.0  0.11874  0.25000  0.77980  1.0000
  C   C99       1.0  0.09501  0.25000  0.76794  1.0000
  C   C100      1.0  0.04755  0.25000  0.76794  1.0000
  C   C101      1.0  0.90518  0.25000  0.79166  1.0000
  C   C102      1.0  0.88145  0.25000  0.77980  1.0000
  C   C103      1.0  0.90518  0.25000  0.76794  1.0000
  C   C104      1.0  0.95263  0.25000  0.76794  1.0000
  C   C105      1.0  0.95263  0.25000  0.81540  1.0000
  C   C106      1.0  0.97636  0.25000  0.82726  1.0000
  C   C107      1.0  0.02382  0.25000  0.82726  1.0000
  C   C108      1.0  0.04755  0.25000  0.81540  1.0000
  C   C109      1.0  0.04755  0.25000  0.83912  1.0000
  C   C110      1.0  0.02382  0.25000  0.85099  1.0000
  C   C111      1.0  0.97636  0.25000  0.85099  1.0000
  C   C112      1.0  0.95263  0.25000  0.83912  1.0000
  C   C113      1.0  0.11874  0.25000  0.75607  1.0000
  C   C114      1.0  0.16620  0.25000  0.75607  1.0000
  C   C115      1.0  0.18993  0.25000  0.76794  1.0000
  C   C116      1.0  0.16620  0.25000  0.77980  1.0000
  H   H37       1.0  0.11257  0.25000  0.80045  1.0000
  H   H38       1.0  0.02999  0.25000  0.75916  1.0000
  H   H39       1.0  0.88761  0.25000  0.80045  1.0000
  H   H40       1.0  0.97020  0.25000  0.75916  1.0000
  H   H41       1.0  0.91750  0.25000  0.81540  1.0000
  H   H42       1.0  0.08268  0.25000  0.81540  1.0000
  H   H43       1.0  0.08268  0.25000  0.83912  1.0000
  O   O19       1.0  0.04693  0.25000  0.86255  1.0000
  O   O20       1.0  0.95325  0.25000  0.86255  1.0000
  H   H44       1.0  0.91750  0.25000  0.83912  1.0000
  H   H45       1.0  0.10117  0.25000  0.74729  1.0000
  O   O21       1.0  0.18931  0.25000  0.74451  1.0000
  O   O22       1.0  0.23615  0.25000  0.76794  1.0000
  H   H46       1.0  0.18376  0.25000  0.78858  1.0000
  C   C117      1.0  0.88145  0.25000  0.75607  1.0000
  C   C118      1.0  0.83399  0.25000  0.75607  1.0000
  C   C119      1.0  0.81026  0.25000  0.76794  1.0000
  C   C120      1.0  0.83399  0.25000  0.77980  1.0000
  H   H47       1.0  0.89901  0.25000  0.74729  1.0000
  O   O23       1.0  0.81088  0.25000  0.74451  1.0000
  O   O24       1.0  0.76403  0.25000  0.76794  1.0000
  H   H48       1.0  0.81642  0.25000  0.78858  1.0000
  C   C121      1.0  0.00010  0.22626  0.97020  1.0000
  C   C122      1.0  0.00010  0.20254  0.95834  1.0000
  C   C123      1.0  0.00010  0.22627  0.94647  1.0000
  C   C124      1.0  0.00010  0.27371  0.94647  1.0000
  C   C125      1.0  0.00010  0.29745  0.95833  1.0000
  C   C126      1.0  0.00010  0.27372  0.97020  1.0000
  C   C127      1.0  0.00010  0.29744  0.93460  1.0000
  C   C128      1.0  0.00010  0.27373  0.92274  1.0000
  C   C129      1.0  0.00010  0.22626  0.92274  1.0000
  C   C130      1.0  0.00010  0.20254  0.93461  1.0000
  C   C131      1.0  0.00010  0.20253  0.98206  1.0000
  C   C132      1.0  0.00010  0.15509  0.98207  1.0000
  C   C133      1.0  0.00010  0.13135  0.97020  1.0000
  C   C134      1.0  0.00010  0.15508  0.95833  1.0000
  C   C135      1.0  0.00010  0.29746  0.98207  1.0000
  C   C136      1.0  0.00010  0.34490  0.98206  1.0000
  C   C137      1.0  0.00010  0.36863  0.97020  1.0000
  C   C138      1.0  0.00010  0.34492  0.95834  1.0000
  C   C139      1.0  0.00010  0.41609  0.97020  1.0000
  C   C140      1.0  0.00010  0.43983  0.98206  1.0000
  C   C141      1.0  0.00010  0.41610  0.99393  1.0000
  C   C142      1.0  0.00010  0.36864  0.99393  1.0000
  C   C143      1.0  0.00010  0.20253  0.91088  1.0000
  C   C144      1.0  0.00010  0.22626  0.89901  1.0000
  C   C145      1.0  0.00010  0.27372  0.89901  1.0000
  C   C146      1.0  0.00010  0.29746  0.91088  1.0000
  H   H49       1.0  0.00010  0.33259  0.93461  1.0000
  H   H50       1.0  0.00010  0.16741  0.93461  1.0000
  H   H51       1.0  0.00010  0.22011  0.99085  1.0000
  H   H52       1.0  0.00010  0.13752  0.94955  1.0000
  H   H53       1.0  0.00010  0.27989  0.99085  1.0000
  H   H54       1.0  0.00010  0.36248  0.94955  1.0000
  H   H55       1.0  0.00010  0.43366  0.96142  1.0000
  O   O25       1.0  0.00010  0.48606  0.98206  1.0000
  O   O26       1.0  0.00010  0.43921  0.00549  1.0000
  H   H56       1.0  0.00010  0.35107  0.00271  1.0000
  H   H57       1.0  0.00010  0.16740  0.91088  1.0000
  O   O27       1.0  0.00010  0.20314  0.88745  1.0000
  O   O28       1.0  0.00010  0.29684  0.88746  1.0000
  H   H58       1.0  0.00010  0.33258  0.91088  1.0000
  C   C147      1.0  0.00010  0.08388  0.97020  1.0000
  C   C148      1.0  0.00010  0.06015  0.98206  1.0000
  C   C149      1.0  0.00010  0.08389  0.99393  1.0000
  C   C150      1.0  0.00010  0.13136  0.99393  1.0000
  H   H59       1.0  0.00010  0.06632  0.96142  1.0000
  O   O29       1.0  0.00010  0.01393  0.98206  1.0000
  O   O30       1.0  0.00010  0.06078  0.00548  1.0000
  H   H60       1.0  0.00010  0.14892  0.00271  1.0000
  C   C151      1.0  0.95263  0.75000  0.20834  1.0000
  C   C152      1.0  0.97636  0.75000  0.22020  1.0000
  C   C153      1.0  0.02382  0.75000  0.22020  1.0000
  C   C154      1.0  0.04755  0.75000  0.20834  1.0000
  C   C155      1.0  0.02382  0.75000  0.19647  1.0000
  C   C156      1.0  0.97636  0.75000  0.19647  1.0000
  C   C157      1.0  0.09501  0.75000  0.20834  1.0000
  C   C158      1.0  0.11874  0.75000  0.22020  1.0000
  C   C159      1.0  0.09501  0.75000  0.23206  1.0000
  C   C160      1.0  0.04755  0.75000  0.23206  1.0000
  C   C161      1.0  0.90518  0.75000  0.20834  1.0000
  C   C162      1.0  0.88145  0.75000  0.22020  1.0000
  C   C163      1.0  0.90518  0.75000  0.23206  1.0000
  C   C164      1.0  0.95263  0.75000  0.23206  1.0000
  C   C165      1.0  0.95263  0.75000  0.18460  1.0000
  C   C166      1.0  0.97636  0.75000  0.17274  1.0000
  C   C167      1.0  0.02382  0.75000  0.17274  1.0000
  C   C168      1.0  0.04755  0.75000  0.18460  1.0000
  C   C169      1.0  0.04755  0.75000  0.16088  1.0000
  C   C170      1.0  0.02382  0.75000  0.14901  1.0000
  C   C171      1.0  0.97636  0.75000  0.14901  1.0000
  C   C172      1.0  0.95263  0.75000  0.16088  1.0000
  C   C173      1.0  0.11874  0.75000  0.24393  1.0000
  C   C174      1.0  0.16620  0.75000  0.24393  1.0000
  C   C175      1.0  0.18993  0.75000  0.23206  1.0000
  C   C176      1.0  0.16620  0.75000  0.22020  1.0000
  H   H61       1.0  0.11257  0.75000  0.19955  1.0000
  H   H62       1.0  0.02999  0.75000  0.24084  1.0000
  H   H63       1.0  0.88761  0.75000  0.19955  1.0000
  H   H64       1.0  0.97020  0.75000  0.24084  1.0000
  H   H65       1.0  0.91750  0.75000  0.18460  1.0000
  H   H66       1.0  0.08268  0.75000  0.18460  1.0000
  H   H67       1.0  0.08268  0.75000  0.16088  1.0000
  O   O31       1.0  0.04693  0.75000  0.13745  1.0000
  O   O32       1.0  0.95325  0.75000  0.13745  1.0000
  H   H68       1.0  0.91750  0.75000  0.16088  1.0000
  H   H69       1.0  0.10117  0.75000  0.25271  1.0000
  O   O33       1.0  0.18931  0.75000  0.25549  1.0000
  O   O34       1.0  0.23615  0.75000  0.23206  1.0000
  H   H70       1.0  0.18376  0.75000  0.21142  1.0000
  C   C177      1.0  0.88145  0.75000  0.24393  1.0000
  C   C178      1.0  0.83399  0.75000  0.24393  1.0000
  C   C179      1.0  0.81026  0.75000  0.23206  1.0000
  C   C180      1.0  0.83399  0.75000  0.22020  1.0000
  H   H71       1.0  0.89901  0.75000  0.25271  1.0000
  O   O35       1.0  0.81088  0.75000  0.25549  1.0000
  O   O36       1.0  0.76403  0.75000  0.23206  1.0000
  H   H72       1.0  0.81642  0.75000  0.21142  1.0000
  C   C181      1.0  0.50000  0.72626  0.47020  1.0000
  C   C182      1.0  0.50000  0.70254  0.45834  1.0000
  C   C183      1.0  0.50000  0.72627  0.44647  1.0000
  C   C184      1.0  0.50000  0.77371  0.44647  1.0000
  C   C185      1.0  0.50000  0.79745  0.45833  1.0000
  C   C186      1.0  0.50000  0.77372  0.47020  1.0000
  C   C187      1.0  0.50000  0.79744  0.43460  1.0000
  C   C188      1.0  0.50000  0.77373  0.42274  1.0000
  C   C189      1.0  0.50000  0.72626  0.42274  1.0000
  C   C190      1.0  0.50000  0.70254  0.43461  1.0000
  C   C191      1.0  0.50000  0.70253  0.48206  1.0000
  C   C192      1.0  0.50000  0.65509  0.48207  1.0000
  C   C193      1.0  0.50000  0.63135  0.47020  1.0000
  C   C194      1.0  0.50000  0.65508  0.45833  1.0000
  C   C195      1.0  0.50000  0.79746  0.48207  1.0000
  C   C196      1.0  0.50000  0.84490  0.48206  1.0000
  C   C197      1.0  0.50000  0.86863  0.47020  1.0000
  C   C198      1.0  0.50000  0.84492  0.45834  1.0000
  C   C199      1.0  0.50000  0.91609  0.47020  1.0000
  C   C200      1.0  0.50000  0.93983  0.48206  1.0000
  C   C201      1.0  0.50000  0.91610  0.49393  1.0000
  C   C202      1.0  0.50000  0.86864  0.49393  1.0000
  C   C203      1.0  0.50000  0.70253  0.41088  1.0000
  C   C204      1.0  0.50000  0.72626  0.39901  1.0000
  C   C205      1.0  0.50000  0.77372  0.39901  1.0000
  C   C206      1.0  0.50000  0.79746  0.41088  1.0000
  H   H73       1.0  0.50000  0.83259  0.43461  1.0000
  H   H74       1.0  0.50000  0.66741  0.43461  1.0000
  H   H75       1.0  0.50000  0.72011  0.49085  1.0000
  H   H76       1.0  0.50000  0.63752  0.44955  1.0000
  H   H77       1.0  0.50000  0.77989  0.49085  1.0000
  H   H78       1.0  0.50000  0.86248  0.44955  1.0000
  H   H79       1.0  0.50000  0.93366  0.46142  1.0000
  O   O37       1.0  0.50000  0.98606  0.48206  1.0000
  O   O38       1.0  0.50000  0.93921  0.50549  1.0000
  H   H80       1.0  0.50000  0.85107  0.50271  1.0000
  H   H81       1.0  0.50000  0.66740  0.41088  1.0000
  O   O39       1.0  0.50000  0.70314  0.38745  1.0000
  O   O40       1.0  0.50000  0.79684  0.38746  1.0000
  H   H82       1.0  0.50000  0.83258  0.41088  1.0000
  C   C207      1.0  0.50000  0.58388  0.47020  1.0000
  C   C208      1.0  0.50000  0.56015  0.48206  1.0000
  C   C209      1.0  0.50000  0.58389  0.49393  1.0000
  C   C210      1.0  0.50000  0.63136  0.49393  1.0000
  H   H83       1.0  0.50000  0.56632  0.46142  1.0000
  O   O41       1.0  0.50000  0.51393  0.48206  1.0000
  O   O42       1.0  0.50000  0.56078  0.50548  1.0000
  H   H84       1.0  0.50000  0.64892  0.50271  1.0000
  C   C211      1.0  0.45254  0.25000  0.70834  1.0000
  C   C212      1.0  0.47627  0.25000  0.72020  1.0000
  C   C213      1.0  0.52373  0.25000  0.72020  1.0000
  C   C214      1.0  0.54745  0.25000  0.70834  1.0000
  C   C215      1.0  0.52373  0.25000  0.69647  1.0000
  C   C216      1.0  0.47627  0.25000  0.69647  1.0000
  C   C217      1.0  0.59491  0.25000  0.70834  1.0000
  C   C218      1.0  0.61864  0.25000  0.72020  1.0000
  C   C219      1.0  0.59491  0.25000  0.73206  1.0000
  C   C220      1.0  0.54745  0.25000  0.73206  1.0000
  C   C221      1.0  0.40508  0.25000  0.70834  1.0000
  C   C222      1.0  0.38135  0.25000  0.72020  1.0000
  C   C223      1.0  0.40508  0.25000  0.73206  1.0000
  C   C224      1.0  0.45254  0.25000  0.73206  1.0000
  C   C225      1.0  0.45254  0.25000  0.68460  1.0000
  C   C226      1.0  0.47627  0.25000  0.67274  1.0000
  C   C227      1.0  0.52373  0.25000  0.67274  1.0000
  C   C228      1.0  0.54745  0.25000  0.68460  1.0000
  C   C229      1.0  0.54745  0.25000  0.66088  1.0000
  C   C230      1.0  0.52373  0.25000  0.64901  1.0000
  C   C231      1.0  0.47627  0.25000  0.64901  1.0000
  C   C232      1.0  0.45254  0.25000  0.66088  1.0000
  C   C233      1.0  0.61864  0.25000  0.74393  1.0000
  C   C234      1.0  0.66610  0.25000  0.74393  1.0000
  C   C235      1.0  0.68983  0.25000  0.73206  1.0000
  C   C236      1.0  0.66610  0.25000  0.72020  1.0000
  H   H85       1.0  0.61248  0.25000  0.69955  1.0000
  H   H86       1.0  0.52989  0.25000  0.74084  1.0000
  H   H87       1.0  0.38751  0.25000  0.69955  1.0000
  H   H88       1.0  0.47010  0.25000  0.74084  1.0000
  H   H89       1.0  0.41741  0.25000  0.68460  1.0000
  H   H90       1.0  0.58259  0.25000  0.68460  1.0000
  H   H91       1.0  0.58259  0.25000  0.66088  1.0000
  O   O43       1.0  0.54684  0.25000  0.63745  1.0000
  O   O44       1.0  0.45315  0.25000  0.63745  1.0000
  H   H92       1.0  0.41741  0.25000  0.66088  1.0000
  H   H93       1.0  0.60108  0.25000  0.75271  1.0000
  O   O45       1.0  0.68921  0.25000  0.75549  1.0000
  O   O46       1.0  0.73605  0.25000  0.73206  1.0000
  H   H94       1.0  0.68367  0.25000  0.71142  1.0000
  C   C237      1.0  0.38135  0.25000  0.74393  1.0000
  C   C238      1.0  0.33389  0.25000  0.74393  1.0000
  C   C239      1.0  0.31016  0.25000  0.73206  1.0000
  C   C240      1.0  0.33389  0.25000  0.72020  1.0000
  H   H95       1.0  0.39892  0.25000  0.75271  1.0000
  O   O47       1.0  0.31078  0.25000  0.75549  1.0000
  O   O48       1.0  0.26394  0.25000  0.73206  1.0000
  H   H96       1.0  0.31633  0.25000  0.71142  1.0000
  Cu  Cu1       1.0  0.00010  0.50000  0.99990  1.0000
  Cu  Cu2       1.0  0.75010  0.75000  0.25000  1.0000
  Cu  Cu3       1.0  0.50000  0.50000  0.50000  1.0000
  Cu  Cu4       1.0  0.75010  0.25000  0.75000  1.0000
  Cu  Cu5       1.0  0.25000  0.25000  0.75000  1.0000
  Cu  Cu6       1.0  0.25010  0.75000  0.25000  1.0000
  Cu  Cu7       1.0  0.50000  0.00010  0.50000  1.0000
  Cu  Cu8       1.0  0.00010  0.00010  0.99990  1.0000
  Zn  Zn1       1.0  0.00010  0.75000  0.12500  1.0000
  Zn  Zn2       1.0  0.50000  0.75000  0.37500  1.0000
  Zn  Zn3       1.0  0.50000  0.25000  0.62500  1.0000
  Zn  Zn4       1.0  0.00010  0.25000  0.87500  1.0000
