data_image0
_chemical_formula_structural       FeC26H7O2H2O2HC4HO2HFeC26H7O2H2O2HC4HO2HFeC26H7O2H2O2HC4HO2HFeC26H7O2H2O2HC4HO2HC6HO2HO2CuC6HO2HO2Cu3C6HO2HO2C6HO2HO2C6O2HO2HCuC6O2HO2HCuC6O2HO2HCuC6O2HO2HCu
_chemical_formula_sum              "Fe4 C168 H64 O56 Cu8"
_cell_length_a       32.4497
_cell_length_b       12.9279
_cell_length_c       97.2794
_cell_angle_alpha    90
_cell_angle_beta     90
_cell_angle_gamma    90

_space_group_name_H-M_alt    "P 1"
_space_group_IT_number       1

loop_
  _space_group_symop_operation_xyz
  'x, y, z'

loop_
  _atom_site_type_symbol
  _atom_site_label
  _atom_site_symmetry_multiplicity
  _atom_site_fract_x
  _atom_site_fract_y
  _atom_site_fract_z
  _atom_site_occupancy
  Fe  Fe1       1.0  0.00010  0.75000  0.01918  1.0000
  C   C1        1.0  0.47628  0.75000  0.31186  1.0000
  C   C2        1.0  0.52372  0.75000  0.31186  1.0000
  C   C3        1.0  0.54745  0.75000  0.29815  1.0000
  C   C4        1.0  0.52374  0.75000  0.28444  1.0000
  C   C5        1.0  0.47627  0.75000  0.28444  1.0000
  C   C6        1.0  0.45254  0.75000  0.29815  1.0000
  C   C7        1.0  0.54747  0.75000  0.27073  1.0000
  C   C8        1.0  0.59491  0.75000  0.27073  1.0000
  C   C9        1.0  0.61864  0.75000  0.28444  1.0000
  C   C10       1.0  0.59492  0.75000  0.29815  1.0000
  C   C11       1.0  0.45255  0.75000  0.32557  1.0000
  C   C12       1.0  0.47626  0.75000  0.33928  1.0000
  C   C13       1.0  0.52373  0.75000  0.33928  1.0000
  C   C14       1.0  0.54746  0.75000  0.32557  1.0000
  C   C15       1.0  0.40508  0.75000  0.29815  1.0000
  C   C16       1.0  0.38137  0.75000  0.28444  1.0000
  C   C17       1.0  0.40509  0.75000  0.27073  1.0000
  C   C18       1.0  0.45253  0.75000  0.27073  1.0000
  C   C19       1.0  0.38136  0.75000  0.25702  1.0000
  C   C20       1.0  0.33389  0.75000  0.25702  1.0000
  C   C21       1.0  0.31016  0.75000  0.27073  1.0000
  C   C22       1.0  0.33390  0.75000  0.28444  1.0000
  C   C23       1.0  0.66611  0.75000  0.28444  1.0000
  C   C24       1.0  0.68984  0.75000  0.27073  1.0000
  C   C25       1.0  0.66610  0.75000  0.25702  1.0000
  C   C26       1.0  0.61864  0.75000  0.25702  1.0000
  H   H1        1.0  0.52988  0.75000  0.26058  1.0000
  H   H2        1.0  0.61247  0.75000  0.30830  1.0000
  H   H3        1.0  0.41740  0.75000  0.32557  1.0000
  H   H4        1.0  0.58258  0.75000  0.32557  1.0000
  H   H5        1.0  0.38751  0.75000  0.30830  1.0000
  H   H6        1.0  0.47010  0.75000  0.26058  1.0000
  H   H7        1.0  0.39892  0.75000  0.24687  1.0000
  O   O1        1.0  0.31078  0.75000  0.24366  1.0000
  O   O2        1.0  0.26394  0.75000  0.27073  1.0000
  H   H8        1.0  0.31633  0.75000  0.29459  1.0000
  H   H9        1.0  0.68367  0.75000  0.29459  1.0000
  O   O3        1.0  0.73606  0.75000  0.27073  1.0000
  O   O4        1.0  0.68922  0.75000  0.24367  1.0000
  H   H10       1.0  0.60108  0.75000  0.24687  1.0000
  C   C27       1.0  0.54747  0.75000  0.35299  1.0000
  C   C28       1.0  0.52374  0.75000  0.36670  1.0000
  C   C29       1.0  0.47627  0.75000  0.36670  1.0000
  C   C30       1.0  0.45253  0.75000  0.35299  1.0000
  H   H11       1.0  0.58259  0.75000  0.35299  1.0000
  O   O5        1.0  0.54685  0.75000  0.38005  1.0000
  O   O6        1.0  0.45316  0.75000  0.38005  1.0000
  H   H12       1.0  0.41741  0.75000  0.35299  1.0000
  Fe  Fe2       1.0  0.50000  0.25000  0.51918  1.0000
  C   C31       1.0  0.97638  0.25000  0.81186  1.0000
  C   C32       1.0  0.02382  0.25000  0.81186  1.0000
  C   C33       1.0  0.04755  0.25000  0.79815  1.0000
  C   C34       1.0  0.02384  0.25000  0.78444  1.0000
  C   C35       1.0  0.97637  0.25000  0.78444  1.0000
  C   C36       1.0  0.95264  0.25000  0.79815  1.0000
  C   C37       1.0  0.04757  0.25000  0.77073  1.0000
  C   C38       1.0  0.09501  0.25000  0.77073  1.0000
  C   C39       1.0  0.11874  0.25000  0.78444  1.0000
  C   C40       1.0  0.09501  0.25000  0.79815  1.0000
  C   C41       1.0  0.95265  0.25000  0.82557  1.0000
  C   C42       1.0  0.97636  0.25000  0.83928  1.0000
  C   C43       1.0  0.02383  0.25000  0.83928  1.0000
  C   C44       1.0  0.04756  0.25000  0.82557  1.0000
  C   C45       1.0  0.90517  0.25000  0.79815  1.0000
  C   C46       1.0  0.88146  0.25000  0.78444  1.0000
  C   C47       1.0  0.90519  0.25000  0.77073  1.0000
  C   C48       1.0  0.95263  0.25000  0.77073  1.0000
  C   C49       1.0  0.88146  0.25000  0.75702  1.0000
  C   C50       1.0  0.83399  0.25000  0.75702  1.0000
  C   C51       1.0  0.81026  0.25000  0.77073  1.0000
  C   C52       1.0  0.83400  0.25000  0.78444  1.0000
  C   C53       1.0  0.16621  0.25000  0.78444  1.0000
  C   C54       1.0  0.18994  0.25000  0.77073  1.0000
  C   C55       1.0  0.16620  0.25000  0.75702  1.0000
  C   C56       1.0  0.11873  0.25000  0.75702  1.0000
  H   H13       1.0  0.02998  0.25000  0.76058  1.0000
  H   H14       1.0  0.11257  0.25000  0.80830  1.0000
  H   H15       1.0  0.91750  0.25000  0.82557  1.0000
  H   H16       1.0  0.08268  0.25000  0.82557  1.0000
  H   H17       1.0  0.88761  0.25000  0.80830  1.0000
  H   H18       1.0  0.97020  0.25000  0.76058  1.0000
  H   H19       1.0  0.89902  0.25000  0.74687  1.0000
  O   O7        1.0  0.81088  0.25000  0.74367  1.0000
  O   O8        1.0  0.76404  0.25000  0.77073  1.0000
  H   H20       1.0  0.81643  0.25000  0.79459  1.0000
  H   H21       1.0  0.18377  0.25000  0.79459  1.0000
  O   O9        1.0  0.23616  0.25000  0.77073  1.0000
  O   O10       1.0  0.18931  0.25000  0.74367  1.0000
  H   H22       1.0  0.10118  0.25000  0.74687  1.0000
  C   C57       1.0  0.04757  0.25000  0.85299  1.0000
  C   C58       1.0  0.02384  0.25000  0.86670  1.0000
  C   C59       1.0  0.97637  0.25000  0.86670  1.0000
  C   C60       1.0  0.95263  0.25000  0.85299  1.0000
  H   H23       1.0  0.08269  0.25000  0.85299  1.0000
  O   O11       1.0  0.04695  0.25000  0.88005  1.0000
  O   O12       1.0  0.95326  0.25000  0.88005  1.0000
  H   H24       1.0  0.91751  0.25000  0.85299  1.0000
  Fe  Fe3       1.0  0.00010  0.25000  0.98082  1.0000
  C   C61       1.0  0.97638  0.75000  0.18814  1.0000
  C   C62       1.0  0.02382  0.75000  0.18814  1.0000
  C   C63       1.0  0.04755  0.75000  0.20185  1.0000
  C   C64       1.0  0.02384  0.75000  0.21556  1.0000
  C   C65       1.0  0.97637  0.75000  0.21556  1.0000
  C   C66       1.0  0.95264  0.75000  0.20185  1.0000
  C   C67       1.0  0.04757  0.75000  0.22927  1.0000
  C   C68       1.0  0.09501  0.75000  0.22927  1.0000
  C   C69       1.0  0.11874  0.75000  0.21556  1.0000
  C   C70       1.0  0.09501  0.75000  0.20185  1.0000
  C   C71       1.0  0.95265  0.75000  0.17443  1.0000
  C   C72       1.0  0.97636  0.75000  0.16072  1.0000
  C   C73       1.0  0.02383  0.75000  0.16072  1.0000
  C   C74       1.0  0.04756  0.75000  0.17443  1.0000
  C   C75       1.0  0.90517  0.75000  0.20185  1.0000
  C   C76       1.0  0.88146  0.75000  0.21556  1.0000
  C   C77       1.0  0.90519  0.75000  0.22927  1.0000
  C   C78       1.0  0.95263  0.75000  0.22927  1.0000
  C   C79       1.0  0.88146  0.75000  0.24298  1.0000
  C   C80       1.0  0.83399  0.75000  0.24298  1.0000
  C   C81       1.0  0.81026  0.75000  0.22927  1.0000
  C   C82       1.0  0.83400  0.75000  0.21556  1.0000
  C   C83       1.0  0.16621  0.75000  0.21556  1.0000
  C   C84       1.0  0.18994  0.75000  0.22927  1.0000
  C   C85       1.0  0.16620  0.75000  0.24298  1.0000
  C   C86       1.0  0.11874  0.75000  0.24298  1.0000
  H   H25       1.0  0.02998  0.75000  0.23942  1.0000
  H   H26       1.0  0.11257  0.75000  0.19170  1.0000
  H   H27       1.0  0.91750  0.75000  0.17443  1.0000
  H   H28       1.0  0.08268  0.75000  0.17443  1.0000
  H   H29       1.0  0.88761  0.75000  0.19170  1.0000
  H   H30       1.0  0.97020  0.75000  0.23942  1.0000
  H   H31       1.0  0.89902  0.75000  0.25313  1.0000
  O   O13       1.0  0.81088  0.75000  0.25633  1.0000
  O   O14       1.0  0.76404  0.75000  0.22927  1.0000
  H   H32       1.0  0.81643  0.75000  0.20541  1.0000
  H   H33       1.0  0.18377  0.75000  0.20541  1.0000
  O   O15       1.0  0.23616  0.75000  0.22927  1.0000
  O   O16       1.0  0.18931  0.75000  0.25633  1.0000
  H   H34       1.0  0.10118  0.75000  0.25313  1.0000
  C   C87       1.0  0.04757  0.75000  0.14701  1.0000
  C   C88       1.0  0.02384  0.75000  0.13330  1.0000
  C   C89       1.0  0.97637  0.75000  0.13330  1.0000
  C   C90       1.0  0.95263  0.75000  0.14701  1.0000
  H   H35       1.0  0.08269  0.75000  0.14701  1.0000
  O   O17       1.0  0.04695  0.75000  0.11995  1.0000
  O   O18       1.0  0.95326  0.75000  0.11995  1.0000
  H   H36       1.0  0.91751  0.75000  0.14701  1.0000
  Fe  Fe4       1.0  0.50000  0.75000  0.48082  1.0000
  C   C91       1.0  0.47628  0.25000  0.68814  1.0000
  C   C92       1.0  0.52372  0.25000  0.68814  1.0000
  C   C93       1.0  0.54745  0.25000  0.70185  1.0000
  C   C94       1.0  0.52374  0.25000  0.71556  1.0000
  C   C95       1.0  0.47627  0.25000  0.71556  1.0000
  C   C96       1.0  0.45254  0.25000  0.70185  1.0000
  C   C97       1.0  0.54747  0.25000  0.72927  1.0000
  C   C98       1.0  0.59491  0.25000  0.72927  1.0000
  C   C99       1.0  0.61864  0.25000  0.71556  1.0000
  C   C100      1.0  0.59491  0.25000  0.70185  1.0000
  C   C101      1.0  0.45255  0.25000  0.67443  1.0000
  C   C102      1.0  0.47626  0.25000  0.66072  1.0000
  C   C103      1.0  0.52373  0.25000  0.66072  1.0000
  C   C104      1.0  0.54746  0.25000  0.67443  1.0000
  C   C105      1.0  0.40507  0.25000  0.70185  1.0000
  C   C106      1.0  0.38136  0.25000  0.71556  1.0000
  C   C107      1.0  0.40509  0.25000  0.72927  1.0000
  C   C108      1.0  0.45253  0.25000  0.72927  1.0000
  C   C109      1.0  0.38136  0.25000  0.74298  1.0000
  C   C110      1.0  0.33389  0.25000  0.74298  1.0000
  C   C111      1.0  0.31016  0.25000  0.72927  1.0000
  C   C112      1.0  0.33390  0.25000  0.71556  1.0000
  C   C113      1.0  0.66611  0.25000  0.71556  1.0000
  C   C114      1.0  0.68984  0.25000  0.72927  1.0000
  C   C115      1.0  0.66610  0.25000  0.74298  1.0000
  C   C116      1.0  0.61864  0.25000  0.74298  1.0000
  H   H37       1.0  0.52988  0.25000  0.73942  1.0000
  H   H38       1.0  0.61247  0.25000  0.69170  1.0000
  H   H39       1.0  0.41740  0.25000  0.67443  1.0000
  H   H40       1.0  0.58258  0.25000  0.67443  1.0000
  H   H41       1.0  0.38751  0.25000  0.69170  1.0000
  H   H42       1.0  0.47010  0.25000  0.73942  1.0000
  H   H43       1.0  0.39892  0.25000  0.75313  1.0000
  O   O19       1.0  0.31078  0.25000  0.75634  1.0000
  O   O20       1.0  0.26394  0.25000  0.72927  1.0000
  H   H44       1.0  0.31633  0.25000  0.70541  1.0000
  H   H45       1.0  0.68367  0.25000  0.70541  1.0000
  O   O21       1.0  0.73606  0.25000  0.72927  1.0000
  O   O22       1.0  0.68921  0.25000  0.75633  1.0000
  H   H46       1.0  0.60108  0.25000  0.75313  1.0000
  C   C117      1.0  0.54747  0.25000  0.64701  1.0000
  C   C118      1.0  0.52374  0.25000  0.63330  1.0000
  C   C119      1.0  0.47627  0.25000  0.63330  1.0000
  C   C120      1.0  0.45253  0.25000  0.64701  1.0000
  H   H47       1.0  0.58259  0.25000  0.64701  1.0000
  O   O23       1.0  0.54685  0.25000  0.61995  1.0000
  O   O24       1.0  0.45316  0.25000  0.61995  1.0000
  H   H48       1.0  0.41741  0.25000  0.64701  1.0000
  C   C121      1.0  0.96487  0.46874  0.00720  1.0000
  C   C122      1.0  0.98249  0.40315  0.99737  1.0000
  C   C123      1.0  0.01771  0.43441  0.99017  1.0000
  C   C124      1.0  0.03533  0.53126  0.99280  1.0000
  C   C125      1.0  0.01771  0.59685  0.00263  1.0000
  C   C126      1.0  0.98249  0.56559  0.00983  1.0000
  H   H49       1.0  0.93845  0.44529  0.01259  1.0000
  O   O25       1.0  0.96663  0.31598  0.99500  1.0000
  O   O26       1.0  0.03357  0.37538  0.98132  1.0000
  H   H50       1.0  0.06175  0.55471  0.98741  1.0000
  O   O27       1.0  0.03357  0.68402  0.00500  1.0000
  O   O28       1.0  0.96663  0.62462  0.01868  1.0000
  Cu  Cu1       1.0  0.75010  0.75000  0.25000  1.0000
  C   C127      1.0  0.46477  0.46874  0.49280  1.0000
  C   C128      1.0  0.48239  0.56559  0.49017  1.0000
  C   C129      1.0  0.51761  0.59685  0.49737  1.0000
  C   C130      1.0  0.53523  0.53126  0.50720  1.0000
  C   C131      1.0  0.51761  0.43441  0.50983  1.0000
  C   C132      1.0  0.48239  0.40315  0.50263  1.0000
  H   H51       1.0  0.43835  0.44529  0.48741  1.0000
  O   O29       1.0  0.46654  0.62462  0.48132  1.0000
  O   O30       1.0  0.53347  0.68402  0.49500  1.0000
  H   H52       1.0  0.56165  0.55471  0.51259  1.0000
  O   O31       1.0  0.53347  0.37538  0.51868  1.0000
  O   O32       1.0  0.46653  0.31598  0.50500  1.0000
  Cu  Cu2       1.0  0.75010  0.25000  0.75000  1.0000
  Cu  Cu3       1.0  0.25000  0.25000  0.75000  1.0000
  Cu  Cu4       1.0  0.25010  0.75000  0.25000  1.0000
  C   C133      1.0  0.46477  0.96874  0.50720  1.0000
  C   C134      1.0  0.48239  0.06559  0.50983  1.0000
  C   C135      1.0  0.51761  0.09685  0.50263  1.0000
  C   C136      1.0  0.53523  0.03126  0.49280  1.0000
  C   C137      1.0  0.51761  0.93441  0.49017  1.0000
  C   C138      1.0  0.48239  0.90315  0.49737  1.0000
  H   H53       1.0  0.43835  0.94529  0.51259  1.0000
  O   O33       1.0  0.46653  0.12462  0.51868  1.0000
  O   O34       1.0  0.53347  0.18402  0.50500  1.0000
  H   H54       1.0  0.56165  0.05471  0.48741  1.0000
  O   O35       1.0  0.53347  0.87538  0.48132  1.0000
  O   O36       1.0  0.46654  0.81598  0.49500  1.0000
  C   C139      1.0  0.96487  0.96874  0.99280  1.0000
  C   C140      1.0  0.98249  0.06559  0.99017  1.0000
  C   C141      1.0  0.01771  0.09685  0.99737  1.0000
  C   C142      1.0  0.03533  0.03126  0.00720  1.0000
  C   C143      1.0  0.01771  0.93441  0.00983  1.0000
  C   C144      1.0  0.98249  0.90315  0.00263  1.0000
  H   H55       1.0  0.93845  0.94529  0.98741  1.0000
  O   O37       1.0  0.96663  0.12462  0.98132  1.0000
  O   O38       1.0  0.03357  0.18402  0.99500  1.0000
  H   H56       1.0  0.06175  0.05471  0.01259  1.0000
  O   O39       1.0  0.03357  0.87538  0.01868  1.0000
  O   O40       1.0  0.96663  0.81598  0.00500  1.0000
  C   C145      1.0  0.98079  0.78427  0.04731  1.0000
  C   C146      1.0  0.01951  0.71554  0.04730  1.0000
  C   C147      1.0  0.03892  0.68110  0.06100  1.0000
  C   C148      1.0  0.01965  0.71529  0.07473  1.0000
  C   C149      1.0  0.98081  0.78424  0.07475  1.0000
  C   C150      1.0  0.96148  0.81855  0.06103  1.0000
  O   O41       1.0  0.96175  0.81806  0.03388  1.0000
  O   O42       1.0  0.03845  0.68193  0.03385  1.0000
  H   H57       1.0  0.06758  0.63023  0.06097  1.0000
  O   O43       1.0  0.03883  0.68126  0.08815  1.0000
  O   O44       1.0  0.96169  0.81817  0.08820  1.0000
  H   H58       1.0  0.93281  0.86943  0.06104  1.0000
  Cu  Cu5       1.0  0.00010  0.74955  0.10427  1.0000
  C   C151      1.0  0.48069  0.78427  0.45269  1.0000
  C   C152      1.0  0.51942  0.71554  0.45269  1.0000
  C   C153      1.0  0.53882  0.68110  0.43900  1.0000
  C   C154      1.0  0.51956  0.71529  0.42527  1.0000
  C   C155      1.0  0.48071  0.78424  0.42525  1.0000
  C   C156      1.0  0.46138  0.81855  0.43897  1.0000
  O   O45       1.0  0.46165  0.81806  0.46612  1.0000
  O   O46       1.0  0.53835  0.68193  0.46615  1.0000
  H   H59       1.0  0.56748  0.63023  0.43903  1.0000
  O   O47       1.0  0.53873  0.68126  0.41185  1.0000
  O   O48       1.0  0.46160  0.81817  0.41180  1.0000
  H   H60       1.0  0.43271  0.86943  0.43896  1.0000
  Cu  Cu6       1.0  0.50026  0.74955  0.39573  1.0000
  C   C157      1.0  0.48069  0.28427  0.54731  1.0000
  C   C158      1.0  0.51941  0.21554  0.54731  1.0000
  C   C159      1.0  0.53882  0.18110  0.56100  1.0000
  C   C160      1.0  0.51955  0.21529  0.57473  1.0000
  C   C161      1.0  0.48071  0.28424  0.57475  1.0000
  C   C162      1.0  0.46138  0.31855  0.56103  1.0000
  O   O49       1.0  0.46165  0.31806  0.53388  1.0000
  O   O50       1.0  0.53835  0.18193  0.53385  1.0000
  H   H61       1.0  0.56748  0.13023  0.56097  1.0000
  O   O51       1.0  0.53873  0.18126  0.58815  1.0000
  O   O52       1.0  0.46159  0.31817  0.58820  1.0000
  H   H62       1.0  0.43271  0.36943  0.56104  1.0000
  Cu  Cu7       1.0  0.50025  0.24955  0.60427  1.0000
  C   C163      1.0  0.98079  0.28427  0.95269  1.0000
  C   C164      1.0  0.01951  0.21554  0.95270  1.0000
  C   C165      1.0  0.03892  0.18110  0.93900  1.0000
  C   C166      1.0  0.01965  0.21529  0.92527  1.0000
  C   C167      1.0  0.98081  0.28424  0.92525  1.0000
  C   C168      1.0  0.96148  0.31855  0.93897  1.0000
  O   O53       1.0  0.96175  0.31806  0.96612  1.0000
  O   O54       1.0  0.03845  0.18193  0.96615  1.0000
  H   H63       1.0  0.06758  0.13023  0.93903  1.0000
  O   O55       1.0  0.03883  0.18126  0.91185  1.0000
  O   O56       1.0  0.96169  0.31817  0.91180  1.0000
  H   H64       1.0  0.93281  0.36943  0.93896  1.0000
  Cu  Cu8       1.0  0.00010  0.24955  0.89573  1.0000
