data_image0
_chemical_formula_structural       FeC18HO2H2O2H2O2HFeC18HO2H2O2H2O2HFeC18HO2H2O2H2O2HFeC18HO2H2O2H2O2HC6HO2HO2CuC6HO2HO2Cu3C6HO2HO2C6HO2HO2C6O2HO2HCuC6O2HO2HCuC6O2HO2HCuC6O2HO2HCu
_chemical_formula_sum              "Fe4 C120 H40 O56 Cu8"
_cell_length_a       21.2297
_cell_length_b       12.928
_cell_length_c       77.846
_cell_angle_alpha    90
_cell_angle_beta     90
_cell_angle_gamma    90

_space_group_name_H-M_alt    "P 1"
_space_group_IT_number       1

loop_
  _space_group_symop_operation_xyz
  'x, y, z'

loop_
  _atom_site_type_symbol
  _atom_site_label
  _atom_site_symmetry_multiplicity
  _atom_site_fract_x
  _atom_site_fract_y
  _atom_site_fract_z
  _atom_site_occupancy
  Fe  Fe1       1.0  0.00010  0.75000  0.02397  1.0000
  C   C1        1.0  0.46703  0.75000  0.30494  1.0000
  C   C2        1.0  0.53297  0.75000  0.30494  1.0000
  C   C3        1.0  0.56595  0.75000  0.28936  1.0000
  C   C4        1.0  0.53297  0.75000  0.27379  1.0000
  C   C5        1.0  0.46703  0.75000  0.27379  1.0000
  C   C6        1.0  0.43405  0.75000  0.28936  1.0000
  C   C7        1.0  0.56595  0.75000  0.25821  1.0000
  C   C8        1.0  0.63189  0.75000  0.25821  1.0000
  C   C9        1.0  0.66486  0.75000  0.27379  1.0000
  C   C10       1.0  0.63189  0.75000  0.28936  1.0000
  C   C11       1.0  0.43405  0.75000  0.32051  1.0000
  C   C12       1.0  0.46703  0.75000  0.33609  1.0000
  C   C13       1.0  0.53297  0.75000  0.33609  1.0000
  C   C14       1.0  0.56595  0.75000  0.32051  1.0000
  C   C15       1.0  0.36811  0.75000  0.28936  1.0000
  C   C16       1.0  0.33514  0.75000  0.27379  1.0000
  C   C17       1.0  0.36811  0.75000  0.25821  1.0000
  C   C18       1.0  0.43405  0.75000  0.25821  1.0000
  H   H1        1.0  0.54122  0.75000  0.24653  1.0000
  O   O1        1.0  0.66157  0.75000  0.24420  1.0000
  O   O2        1.0  0.72421  0.75000  0.27379  1.0000
  H   H2        1.0  0.65662  0.75000  0.30104  1.0000
  H   H3        1.0  0.38460  0.75000  0.32051  1.0000
  O   O3        1.0  0.43735  0.75000  0.35010  1.0000
  O   O4        1.0  0.56265  0.75000  0.35010  1.0000
  H   H4        1.0  0.61540  0.75000  0.32051  1.0000
  H   H5        1.0  0.34338  0.75000  0.30104  1.0000
  O   O5        1.0  0.27579  0.75000  0.27379  1.0000
  O   O6        1.0  0.33843  0.75000  0.24420  1.0000
  H   H6        1.0  0.45878  0.75000  0.24653  1.0000
  Fe  Fe2       1.0  0.50000  0.25000  0.52397  1.0000
  C   C19       1.0  0.96713  0.25000  0.80494  1.0000
  C   C20       1.0  0.03307  0.25000  0.80494  1.0000
  C   C21       1.0  0.06605  0.25000  0.78936  1.0000
  C   C22       1.0  0.03307  0.25000  0.77379  1.0000
  C   C23       1.0  0.96713  0.25000  0.77379  1.0000
  C   C24       1.0  0.93415  0.25000  0.78936  1.0000
  C   C25       1.0  0.06605  0.25000  0.75821  1.0000
  C   C26       1.0  0.13199  0.25000  0.75821  1.0000
  C   C27       1.0  0.16496  0.25000  0.77379  1.0000
  C   C28       1.0  0.13199  0.25000  0.78936  1.0000
  C   C29       1.0  0.93415  0.25000  0.82051  1.0000
  C   C30       1.0  0.96713  0.25000  0.83609  1.0000
  C   C31       1.0  0.03307  0.25000  0.83609  1.0000
  C   C32       1.0  0.06605  0.25000  0.82051  1.0000
  C   C33       1.0  0.86821  0.25000  0.78936  1.0000
  C   C34       1.0  0.83524  0.25000  0.77379  1.0000
  C   C35       1.0  0.86821  0.25000  0.75821  1.0000
  C   C36       1.0  0.93415  0.25000  0.75821  1.0000
  H   H7        1.0  0.04132  0.25000  0.74653  1.0000
  O   O7        1.0  0.16167  0.25000  0.74420  1.0000
  O   O8        1.0  0.22431  0.25000  0.77379  1.0000
  H   H8        1.0  0.15672  0.25000  0.80104  1.0000
  H   H9        1.0  0.88470  0.25000  0.82051  1.0000
  O   O9        1.0  0.93745  0.25000  0.85010  1.0000
  O   O10       1.0  0.06275  0.25000  0.85010  1.0000
  H   H10       1.0  0.11550  0.25000  0.82051  1.0000
  H   H11       1.0  0.84348  0.25000  0.80104  1.0000
  O   O11       1.0  0.77589  0.25000  0.77379  1.0000
  O   O12       1.0  0.83853  0.25000  0.74420  1.0000
  H   H12       1.0  0.95888  0.25000  0.74653  1.0000
  Fe  Fe3       1.0  0.00010  0.25000  0.97603  1.0000
  C   C37       1.0  0.96713  0.75000  0.19506  1.0000
  C   C38       1.0  0.03307  0.75000  0.19506  1.0000
  C   C39       1.0  0.06605  0.75000  0.21064  1.0000
  C   C40       1.0  0.03307  0.75000  0.22621  1.0000
  C   C41       1.0  0.96713  0.75000  0.22621  1.0000
  C   C42       1.0  0.93415  0.75000  0.21064  1.0000
  C   C43       1.0  0.06605  0.75000  0.24179  1.0000
  C   C44       1.0  0.13199  0.75000  0.24179  1.0000
  C   C45       1.0  0.16496  0.75000  0.22621  1.0000
  C   C46       1.0  0.13199  0.75000  0.21064  1.0000
  C   C47       1.0  0.93415  0.75000  0.17949  1.0000
  C   C48       1.0  0.96713  0.75000  0.16391  1.0000
  C   C49       1.0  0.03307  0.75000  0.16391  1.0000
  C   C50       1.0  0.06605  0.75000  0.17949  1.0000
  C   C51       1.0  0.86821  0.75000  0.21064  1.0000
  C   C52       1.0  0.83524  0.75000  0.22621  1.0000
  C   C53       1.0  0.86821  0.75000  0.24179  1.0000
  C   C54       1.0  0.93415  0.75000  0.24179  1.0000
  H   H13       1.0  0.04132  0.75000  0.25347  1.0000
  O   O13       1.0  0.16167  0.75000  0.25580  1.0000
  O   O14       1.0  0.22431  0.75000  0.22621  1.0000
  H   H14       1.0  0.15672  0.75000  0.19896  1.0000
  H   H15       1.0  0.88470  0.75000  0.17949  1.0000
  O   O15       1.0  0.93745  0.75000  0.14990  1.0000
  O   O16       1.0  0.06275  0.75000  0.14990  1.0000
  H   H16       1.0  0.11550  0.75000  0.17949  1.0000
  H   H17       1.0  0.84348  0.75000  0.19896  1.0000
  O   O17       1.0  0.77589  0.75000  0.22621  1.0000
  O   O18       1.0  0.83853  0.75000  0.25580  1.0000
  H   H18       1.0  0.95888  0.75000  0.25347  1.0000
  Fe  Fe4       1.0  0.50000  0.75000  0.47603  1.0000
  C   C55       1.0  0.46703  0.25000  0.69506  1.0000
  C   C56       1.0  0.53297  0.25000  0.69506  1.0000
  C   C57       1.0  0.56595  0.25000  0.71064  1.0000
  C   C58       1.0  0.53297  0.25000  0.72621  1.0000
  C   C59       1.0  0.46703  0.25000  0.72621  1.0000
  C   C60       1.0  0.43405  0.25000  0.71064  1.0000
  C   C61       1.0  0.56595  0.25000  0.74179  1.0000
  C   C62       1.0  0.63189  0.25000  0.74179  1.0000
  C   C63       1.0  0.66486  0.25000  0.72621  1.0000
  C   C64       1.0  0.63189  0.25000  0.71064  1.0000
  C   C65       1.0  0.43405  0.25000  0.67949  1.0000
  C   C66       1.0  0.46703  0.25000  0.66391  1.0000
  C   C67       1.0  0.53297  0.25000  0.66391  1.0000
  C   C68       1.0  0.56595  0.25000  0.67949  1.0000
  C   C69       1.0  0.36811  0.25000  0.71064  1.0000
  C   C70       1.0  0.33514  0.25000  0.72621  1.0000
  C   C71       1.0  0.36811  0.25000  0.74179  1.0000
  C   C72       1.0  0.43405  0.25000  0.74179  1.0000
  H   H19       1.0  0.54122  0.25000  0.75347  1.0000
  O   O19       1.0  0.66157  0.25000  0.75580  1.0000
  O   O20       1.0  0.72421  0.25000  0.72621  1.0000
  H   H20       1.0  0.65662  0.25000  0.69896  1.0000
  H   H21       1.0  0.38460  0.25000  0.67949  1.0000
  O   O21       1.0  0.43735  0.25000  0.64990  1.0000
  O   O22       1.0  0.56265  0.25000  0.64990  1.0000
  H   H22       1.0  0.61540  0.25000  0.67949  1.0000
  H   H23       1.0  0.34338  0.25000  0.69896  1.0000
  O   O23       1.0  0.27579  0.25000  0.72621  1.0000
  O   O24       1.0  0.33843  0.25000  0.75580  1.0000
  H   H24       1.0  0.45878  0.25000  0.75347  1.0000
  C   C73       1.0  0.94626  0.46874  0.00899  1.0000
  C   C74       1.0  0.97318  0.40315  0.99671  1.0000
  C   C75       1.0  0.02702  0.43441  0.98772  1.0000
  C   C76       1.0  0.05394  0.53126  0.99101  1.0000
  C   C77       1.0  0.02702  0.59685  0.00329  1.0000
  C   C78       1.0  0.97318  0.56559  0.01228  1.0000
  H   H25       1.0  0.90587  0.44529  0.01574  1.0000
  O   O25       1.0  0.94895  0.31599  0.99375  1.0000
  O   O26       1.0  0.05125  0.37538  0.97666  1.0000
  H   H26       1.0  0.09433  0.55471  0.98426  1.0000
  O   O27       1.0  0.05125  0.68402  0.00625  1.0000
  O   O28       1.0  0.94895  0.62462  0.02334  1.0000
  Cu  Cu1       1.0  0.75010  0.75000  0.25000  1.0000
  C   C79       1.0  0.44616  0.46874  0.49101  1.0000
  C   C80       1.0  0.47308  0.56559  0.48772  1.0000
  C   C81       1.0  0.52692  0.59685  0.49671  1.0000
  C   C82       1.0  0.55384  0.53126  0.50899  1.0000
  C   C83       1.0  0.52692  0.43441  0.51228  1.0000
  C   C84       1.0  0.47308  0.40315  0.50329  1.0000
  H   H27       1.0  0.40577  0.44529  0.48426  1.0000
  O   O29       1.0  0.44885  0.62462  0.47666  1.0000
  O   O30       1.0  0.55115  0.68402  0.49375  1.0000
  H   H28       1.0  0.59423  0.55471  0.51574  1.0000
  O   O31       1.0  0.55115  0.37538  0.52334  1.0000
  O   O32       1.0  0.44885  0.31599  0.50625  1.0000
  Cu  Cu2       1.0  0.75010  0.25000  0.75000  1.0000
  Cu  Cu3       1.0  0.25000  0.25000  0.75000  1.0000
  Cu  Cu4       1.0  0.25010  0.75000  0.25000  1.0000
  C   C85       1.0  0.44616  0.96874  0.50899  1.0000
  C   C86       1.0  0.47308  0.06559  0.51228  1.0000
  C   C87       1.0  0.52692  0.09685  0.50329  1.0000
  C   C88       1.0  0.55384  0.03126  0.49101  1.0000
  C   C89       1.0  0.52692  0.93441  0.48772  1.0000
  C   C90       1.0  0.47308  0.90315  0.49671  1.0000
  H   H29       1.0  0.40577  0.94529  0.51574  1.0000
  O   O33       1.0  0.44885  0.12462  0.52334  1.0000
  O   O34       1.0  0.55115  0.18402  0.50625  1.0000
  H   H30       1.0  0.59423  0.05471  0.48426  1.0000
  O   O35       1.0  0.55115  0.87538  0.47666  1.0000
  O   O36       1.0  0.44885  0.81598  0.49375  1.0000
  C   C91       1.0  0.94626  0.96874  0.99101  1.0000
  C   C92       1.0  0.97318  0.06559  0.98772  1.0000
  C   C93       1.0  0.02702  0.09685  0.99671  1.0000
  C   C94       1.0  0.05394  0.03126  0.00899  1.0000
  C   C95       1.0  0.02702  0.93441  0.01228  1.0000
  C   C96       1.0  0.97318  0.90315  0.00329  1.0000
  H   H31       1.0  0.90587  0.94529  0.98426  1.0000
  O   O37       1.0  0.94895  0.12462  0.97666  1.0000
  O   O38       1.0  0.05125  0.18402  0.99375  1.0000
  H   H32       1.0  0.09433  0.05471  0.01574  1.0000
  O   O39       1.0  0.05125  0.87538  0.02334  1.0000
  O   O40       1.0  0.94895  0.81599  0.00625  1.0000
  C   C97       1.0  0.96565  0.76798  0.05912  1.0000
  C   C98       1.0  0.03474  0.73192  0.05911  1.0000
  C   C99       1.0  0.06936  0.71385  0.07622  1.0000
  C   C100      1.0  0.03499  0.73179  0.09338  1.0000
  C   C101      1.0  0.96569  0.76796  0.09341  1.0000
  C   C102      1.0  0.93120  0.78596  0.07627  1.0000
  O   O41       1.0  0.93168  0.78571  0.04234  1.0000
  O   O42       1.0  0.06852  0.71429  0.04230  1.0000
  H   H33       1.0  0.12050  0.68716  0.07619  1.0000
  O   O43       1.0  0.06920  0.71394  0.11016  1.0000
  O   O44       1.0  0.93158  0.78576  0.11021  1.0000
  H   H34       1.0  0.88006  0.81266  0.07627  1.0000
  Cu  Cu5       1.0  0.00010  0.74976  0.13029  1.0000
  C   C103      1.0  0.46555  0.76798  0.44088  1.0000
  C   C104      1.0  0.53464  0.73192  0.44089  1.0000
  C   C105      1.0  0.56926  0.71385  0.42378  1.0000
  C   C106      1.0  0.53489  0.73179  0.40662  1.0000
  C   C107      1.0  0.46559  0.76796  0.40659  1.0000
  C   C108      1.0  0.43110  0.78596  0.42374  1.0000
  O   O45       1.0  0.43158  0.78571  0.45766  1.0000
  O   O46       1.0  0.56842  0.71429  0.45770  1.0000
  H   H35       1.0  0.62040  0.68716  0.42382  1.0000
  O   O47       1.0  0.56910  0.71394  0.38984  1.0000
  O   O48       1.0  0.43148  0.78576  0.38979  1.0000
  H   H36       1.0  0.37996  0.81266  0.42373  1.0000
  Cu  Cu6       1.0  0.50045  0.74976  0.36971  1.0000
  C   C109      1.0  0.46555  0.26798  0.55912  1.0000
  C   C110      1.0  0.53464  0.23192  0.55911  1.0000
  C   C111      1.0  0.56926  0.21385  0.57622  1.0000
  C   C112      1.0  0.53489  0.23179  0.59338  1.0000
  C   C113      1.0  0.46559  0.26796  0.59341  1.0000
  C   C114      1.0  0.43110  0.28596  0.57626  1.0000
  O   O49       1.0  0.43158  0.28571  0.54234  1.0000
  O   O50       1.0  0.56842  0.21429  0.54230  1.0000
  H   H37       1.0  0.62040  0.18716  0.57618  1.0000
  O   O51       1.0  0.56910  0.21394  0.61016  1.0000
  O   O52       1.0  0.43148  0.28576  0.61021  1.0000
  H   H38       1.0  0.37996  0.31266  0.57627  1.0000
  Cu  Cu7       1.0  0.50045  0.24976  0.63029  1.0000
  C   C115      1.0  0.96565  0.26798  0.94088  1.0000
  C   C116      1.0  0.03474  0.23192  0.94089  1.0000
  C   C117      1.0  0.06936  0.21385  0.92378  1.0000
  C   C118      1.0  0.03499  0.23179  0.90662  1.0000
  C   C119      1.0  0.96569  0.26796  0.90659  1.0000
  C   C120      1.0  0.93120  0.28596  0.92373  1.0000
  O   O53       1.0  0.93168  0.28571  0.95766  1.0000
  O   O54       1.0  0.06852  0.21429  0.95770  1.0000
  H   H39       1.0  0.12050  0.18716  0.92381  1.0000
  O   O55       1.0  0.06920  0.21394  0.88984  1.0000
  O   O56       1.0  0.93158  0.28576  0.88979  1.0000
  H   H40       1.0  0.88006  0.31266  0.92373  1.0000
  Cu  Cu8       1.0  0.00010  0.24976  0.86971  1.0000
