data_image0
_chemical_formula_structural       C18HO2H2O2H2O2HC18HO2H2O2H2O2HC18HO2H2O2H2O2HC18HO2H2O2H2O2HC18HO2H2O2H2O2HC18HO2H2O2H2O2HC18HO2H2O2H2O2HC18HO2H2O2H2O2HCu8Zn4
_chemical_formula_sum              "C144 H48 O48 Cu8 Zn4"
_cell_length_a       21.2298
_cell_length_b       21.2298
_cell_length_c       73.5418
_cell_angle_alpha    89.9994
_cell_angle_beta     90
_cell_angle_gamma    90

_space_group_name_H-M_alt    "P 1"
_space_group_IT_number       1

loop_
  _space_group_symop_operation_xyz
  'x, y, z'

loop_
  _atom_site_type_symbol
  _atom_site_label
  _atom_site_symmetry_multiplicity
  _atom_site_fract_x
  _atom_site_fract_y
  _atom_site_fract_z
  _atom_site_occupancy
  C   C1        1.0  0.00010  0.68405  0.04167  1.0000
  C   C2        1.0  0.00010  0.71703  0.02518  1.0000
  C   C3        1.0  0.00010  0.78297  0.02518  1.0000
  C   C4        1.0  0.00010  0.81594  0.04167  1.0000
  C   C5        1.0  0.00010  0.78297  0.05815  1.0000
  C   C6        1.0  0.00010  0.71702  0.05815  1.0000
  C   C7        1.0  0.00010  0.88189  0.04167  1.0000
  C   C8        1.0  0.00010  0.91486  0.02518  1.0000
  C   C9        1.0  0.00010  0.88189  0.00869  1.0000
  C   C10       1.0  0.00010  0.81594  0.00869  1.0000
  C   C11       1.0  0.00010  0.61811  0.04167  1.0000
  C   C12       1.0  0.00010  0.58514  0.02518  1.0000
  C   C13       1.0  0.00010  0.61811  0.00869  1.0000
  C   C14       1.0  0.00010  0.68405  0.00869  1.0000
  C   C15       1.0  0.00010  0.68405  0.07464  1.0000
  C   C16       1.0  0.00010  0.71702  0.09113  1.0000
  C   C17       1.0  0.00010  0.78297  0.09113  1.0000
  C   C18       1.0  0.00010  0.81594  0.07464  1.0000
  H   H1        1.0  0.00010  0.90662  0.05403  1.0000
  O   O1        1.0  0.00010  0.97421  0.02518  1.0000
  O   O2        1.0  0.00010  0.91156  0.99386  1.0000
  H   H2        1.0  0.00010  0.79122  0.99633  1.0000
  H   H3        1.0  0.00010  0.59338  0.05403  1.0000
  O   O3        1.0  0.00010  0.52578  0.02518  1.0000
  O   O4        1.0  0.00010  0.58843  0.99386  1.0000
  H   H4        1.0  0.00010  0.70878  0.99633  1.0000
  H   H5        1.0  0.00010  0.63459  0.07464  1.0000
  O   O5        1.0  0.00010  0.68735  0.10596  1.0000
  O   O6        1.0  0.00010  0.81264  0.10596  1.0000
  H   H6        1.0  0.00010  0.86540  0.07464  1.0000
  C   C19       1.0  0.46703  0.75001  0.30815  1.0000
  C   C20       1.0  0.53297  0.75001  0.30815  1.0000
  C   C21       1.0  0.56595  0.75001  0.29167  1.0000
  C   C22       1.0  0.53297  0.75001  0.27518  1.0000
  C   C23       1.0  0.46703  0.75001  0.27518  1.0000
  C   C24       1.0  0.43406  0.75001  0.29167  1.0000
  C   C25       1.0  0.56595  0.75001  0.25869  1.0000
  C   C26       1.0  0.63189  0.75001  0.25869  1.0000
  C   C27       1.0  0.66486  0.75001  0.27518  1.0000
  C   C28       1.0  0.63189  0.75001  0.29167  1.0000
  C   C29       1.0  0.43406  0.75001  0.32464  1.0000
  C   C30       1.0  0.46703  0.75001  0.34113  1.0000
  C   C31       1.0  0.53297  0.75001  0.34113  1.0000
  C   C32       1.0  0.56595  0.75001  0.32464  1.0000
  C   C33       1.0  0.36811  0.75001  0.29167  1.0000
  C   C34       1.0  0.33514  0.75001  0.27518  1.0000
  C   C35       1.0  0.36811  0.75001  0.25869  1.0000
  C   C36       1.0  0.43406  0.75001  0.25869  1.0000
  H   H7        1.0  0.54122  0.75001  0.24633  1.0000
  O   O7        1.0  0.66157  0.75001  0.24386  1.0000
  O   O8        1.0  0.72421  0.75001  0.27518  1.0000
  H   H8        1.0  0.65662  0.75001  0.30403  1.0000
  H   H9        1.0  0.38460  0.75001  0.32464  1.0000
  O   O9        1.0  0.43735  0.75001  0.35596  1.0000
  O   O10       1.0  0.56265  0.75001  0.35596  1.0000
  H   H10       1.0  0.61540  0.75001  0.32464  1.0000
  H   H11       1.0  0.34338  0.75001  0.30403  1.0000
  O   O11       1.0  0.27579  0.75001  0.27518  1.0000
  O   O12       1.0  0.33843  0.75001  0.24386  1.0000
  H   H12       1.0  0.45878  0.75001  0.24633  1.0000
  C   C37       1.0  0.50000  0.18405  0.54167  1.0000
  C   C38       1.0  0.50000  0.21703  0.52518  1.0000
  C   C39       1.0  0.50000  0.28297  0.52518  1.0000
  C   C40       1.0  0.50000  0.31594  0.54167  1.0000
  C   C41       1.0  0.50000  0.28297  0.55815  1.0000
  C   C42       1.0  0.50000  0.21702  0.55815  1.0000
  C   C43       1.0  0.50000  0.38189  0.54167  1.0000
  C   C44       1.0  0.50000  0.41486  0.52518  1.0000
  C   C45       1.0  0.50000  0.38189  0.50869  1.0000
  C   C46       1.0  0.50000  0.31594  0.50869  1.0000
  C   C47       1.0  0.50000  0.11811  0.54167  1.0000
  C   C48       1.0  0.50000  0.08514  0.52518  1.0000
  C   C49       1.0  0.50000  0.11811  0.50869  1.0000
  C   C50       1.0  0.50000  0.18405  0.50869  1.0000
  C   C51       1.0  0.50000  0.18405  0.57464  1.0000
  C   C52       1.0  0.50000  0.21702  0.59113  1.0000
  C   C53       1.0  0.50000  0.28297  0.59113  1.0000
  C   C54       1.0  0.50000  0.31594  0.57464  1.0000
  H   H13       1.0  0.50000  0.40662  0.55403  1.0000
  O   O13       1.0  0.50000  0.47421  0.52518  1.0000
  O   O14       1.0  0.50000  0.41156  0.49386  1.0000
  H   H14       1.0  0.50000  0.29122  0.49633  1.0000
  H   H15       1.0  0.50000  0.09338  0.55403  1.0000
  O   O15       1.0  0.50000  0.02578  0.52518  1.0000
  O   O16       1.0  0.50000  0.08843  0.49386  1.0000
  H   H16       1.0  0.50000  0.20878  0.49633  1.0000
  H   H17       1.0  0.50000  0.13459  0.57464  1.0000
  O   O17       1.0  0.50000  0.18735  0.60596  1.0000
  O   O18       1.0  0.50000  0.31264  0.60596  1.0000
  H   H18       1.0  0.50000  0.36540  0.57464  1.0000
  C   C55       1.0  0.96713  0.25001  0.80815  1.0000
  C   C56       1.0  0.03307  0.25001  0.80815  1.0000
  C   C57       1.0  0.06605  0.25001  0.79167  1.0000
  C   C58       1.0  0.03307  0.25001  0.77518  1.0000
  C   C59       1.0  0.96713  0.25001  0.77518  1.0000
  C   C60       1.0  0.93415  0.25001  0.79167  1.0000
  C   C61       1.0  0.06604  0.25001  0.75869  1.0000
  C   C62       1.0  0.13199  0.25001  0.75869  1.0000
  C   C63       1.0  0.16496  0.25001  0.77518  1.0000
  C   C64       1.0  0.13199  0.25001  0.79167  1.0000
  C   C65       1.0  0.93416  0.25001  0.82464  1.0000
  C   C66       1.0  0.96713  0.25001  0.84113  1.0000
  C   C67       1.0  0.03307  0.25001  0.84113  1.0000
  C   C68       1.0  0.06605  0.25001  0.82464  1.0000
  C   C69       1.0  0.86821  0.25001  0.79167  1.0000
  C   C70       1.0  0.83524  0.25001  0.77518  1.0000
  C   C71       1.0  0.86821  0.25001  0.75869  1.0000
  C   C72       1.0  0.93415  0.25001  0.75869  1.0000
  H   H19       1.0  0.04132  0.25001  0.74633  1.0000
  O   O19       1.0  0.16167  0.25001  0.74386  1.0000
  O   O20       1.0  0.22431  0.25001  0.77518  1.0000
  H   H20       1.0  0.15672  0.25001  0.80403  1.0000
  H   H21       1.0  0.88470  0.25001  0.82464  1.0000
  O   O21       1.0  0.93745  0.25001  0.85596  1.0000
  O   O22       1.0  0.06275  0.25001  0.85596  1.0000
  H   H22       1.0  0.11550  0.25001  0.82464  1.0000
  H   H23       1.0  0.84348  0.25001  0.80403  1.0000
  O   O23       1.0  0.77589  0.25001  0.77518  1.0000
  O   O24       1.0  0.83853  0.25001  0.74386  1.0000
  H   H24       1.0  0.95888  0.25001  0.74633  1.0000
  C   C73       1.0  0.00010  0.28297  0.97482  1.0000
  C   C74       1.0  0.00010  0.31595  0.95833  1.0000
  C   C75       1.0  0.00010  0.28298  0.94185  1.0000
  C   C76       1.0  0.00010  0.21703  0.94185  1.0000
  C   C77       1.0  0.00010  0.18406  0.95833  1.0000
  C   C78       1.0  0.00010  0.21703  0.97482  1.0000
  C   C79       1.0  0.00010  0.18406  0.92536  1.0000
  C   C80       1.0  0.00010  0.21703  0.90887  1.0000
  C   C81       1.0  0.00010  0.28298  0.90887  1.0000
  C   C82       1.0  0.00010  0.31595  0.92536  1.0000
  C   C83       1.0  0.00010  0.31595  0.99131  1.0000
  C   C84       1.0  0.00010  0.38189  0.99131  1.0000
  C   C85       1.0  0.00010  0.41486  0.97482  1.0000
  C   C86       1.0  0.00010  0.38189  0.95833  1.0000
  C   C87       1.0  0.00010  0.18406  0.99131  1.0000
  C   C88       1.0  0.00010  0.11811  0.99131  1.0000
  C   C89       1.0  0.00010  0.08514  0.97482  1.0000
  C   C90       1.0  0.00010  0.11811  0.95833  1.0000
  H   H25       1.0  0.00010  0.13460  0.92536  1.0000
  O   O25       1.0  0.00010  0.18736  0.89404  1.0000
  O   O26       1.0  0.00010  0.31265  0.89404  1.0000
  H   H26       1.0  0.00010  0.36541  0.92536  1.0000
  H   H27       1.0  0.00010  0.29122  0.00367  1.0000
  O   O27       1.0  0.00010  0.41157  0.00614  1.0000
  O   O28       1.0  0.00010  0.47422  0.97482  1.0000
  H   H28       1.0  0.00010  0.40662  0.94597  1.0000
  H   H29       1.0  0.00010  0.20878  0.00367  1.0000
  O   O29       1.0  0.00010  0.08844  0.00614  1.0000
  O   O30       1.0  0.00010  0.02579  0.97482  1.0000
  H   H30       1.0  0.00010  0.09338  0.94597  1.0000
  C   C91       1.0  0.96713  0.74999  0.19185  1.0000
  C   C92       1.0  0.03307  0.74999  0.19185  1.0000
  C   C93       1.0  0.06605  0.74999  0.20833  1.0000
  C   C94       1.0  0.03307  0.74999  0.22482  1.0000
  C   C95       1.0  0.96713  0.74999  0.22482  1.0000
  C   C96       1.0  0.93415  0.74999  0.20833  1.0000
  C   C97       1.0  0.06605  0.74999  0.24131  1.0000
  C   C98       1.0  0.13199  0.74999  0.24131  1.0000
  C   C99       1.0  0.16496  0.74999  0.22482  1.0000
  C   C100      1.0  0.13199  0.74999  0.20833  1.0000
  C   C101      1.0  0.93415  0.74999  0.17536  1.0000
  C   C102      1.0  0.96713  0.74999  0.15887  1.0000
  C   C103      1.0  0.03307  0.74999  0.15887  1.0000
  C   C104      1.0  0.06605  0.74999  0.17536  1.0000
  C   C105      1.0  0.86821  0.74999  0.20833  1.0000
  C   C106      1.0  0.83524  0.74999  0.22482  1.0000
  C   C107      1.0  0.86821  0.74999  0.24131  1.0000
  C   C108      1.0  0.93415  0.74999  0.24131  1.0000
  H   H31       1.0  0.04132  0.74999  0.25367  1.0000
  O   O31       1.0  0.16167  0.74999  0.25614  1.0000
  O   O32       1.0  0.22431  0.74999  0.22482  1.0000
  H   H32       1.0  0.15672  0.74999  0.19597  1.0000
  H   H33       1.0  0.88470  0.74999  0.17536  1.0000
  O   O33       1.0  0.93745  0.74999  0.14404  1.0000
  O   O34       1.0  0.06275  0.74999  0.14404  1.0000
  H   H34       1.0  0.11550  0.74999  0.17536  1.0000
  H   H35       1.0  0.84348  0.74999  0.19597  1.0000
  O   O35       1.0  0.77589  0.74999  0.22482  1.0000
  O   O36       1.0  0.83853  0.74999  0.25614  1.0000
  H   H36       1.0  0.95888  0.74999  0.25367  1.0000
  C   C109      1.0  0.50000  0.78297  0.47482  1.0000
  C   C110      1.0  0.50000  0.81595  0.45833  1.0000
  C   C111      1.0  0.50000  0.78298  0.44185  1.0000
  C   C112      1.0  0.50000  0.71703  0.44185  1.0000
  C   C113      1.0  0.50000  0.68406  0.45833  1.0000
  C   C114      1.0  0.50000  0.71703  0.47482  1.0000
  C   C115      1.0  0.50000  0.68406  0.42536  1.0000
  C   C116      1.0  0.50000  0.71703  0.40887  1.0000
  C   C117      1.0  0.50000  0.78298  0.40887  1.0000
  C   C118      1.0  0.50000  0.81595  0.42536  1.0000
  C   C119      1.0  0.50000  0.81595  0.49131  1.0000
  C   C120      1.0  0.50000  0.88189  0.49131  1.0000
  C   C121      1.0  0.50000  0.91486  0.47482  1.0000
  C   C122      1.0  0.50000  0.88189  0.45833  1.0000
  C   C123      1.0  0.50000  0.68406  0.49131  1.0000
  C   C124      1.0  0.50000  0.61811  0.49131  1.0000
  C   C125      1.0  0.50000  0.58514  0.47482  1.0000
  C   C126      1.0  0.50000  0.61811  0.45833  1.0000
  H   H37       1.0  0.50000  0.63460  0.42536  1.0000
  O   O37       1.0  0.50000  0.68736  0.39404  1.0000
  O   O38       1.0  0.50000  0.81265  0.39404  1.0000
  H   H38       1.0  0.50000  0.86541  0.42536  1.0000
  H   H39       1.0  0.50000  0.79122  0.50367  1.0000
  O   O39       1.0  0.50000  0.91157  0.50614  1.0000
  O   O40       1.0  0.50000  0.97422  0.47482  1.0000
  H   H40       1.0  0.50000  0.90662  0.44597  1.0000
  H   H41       1.0  0.50000  0.70878  0.50367  1.0000
  O   O41       1.0  0.50000  0.58844  0.50614  1.0000
  O   O42       1.0  0.50000  0.52579  0.47482  1.0000
  H   H42       1.0  0.50000  0.59338  0.44597  1.0000
  C   C127      1.0  0.46703  0.24999  0.69185  1.0000
  C   C128      1.0  0.53297  0.24999  0.69185  1.0000
  C   C129      1.0  0.56595  0.24999  0.70833  1.0000
  C   C130      1.0  0.53297  0.24999  0.72482  1.0000
  C   C131      1.0  0.46703  0.24999  0.72482  1.0000
  C   C132      1.0  0.43406  0.24999  0.70833  1.0000
  C   C133      1.0  0.56595  0.24999  0.74131  1.0000
  C   C134      1.0  0.63189  0.24999  0.74131  1.0000
  C   C135      1.0  0.66486  0.24999  0.72482  1.0000
  C   C136      1.0  0.63189  0.24999  0.70833  1.0000
  C   C137      1.0  0.43406  0.24999  0.67536  1.0000
  C   C138      1.0  0.46703  0.24999  0.65887  1.0000
  C   C139      1.0  0.53297  0.24999  0.65887  1.0000
  C   C140      1.0  0.56595  0.24999  0.67536  1.0000
  C   C141      1.0  0.36811  0.24999  0.70833  1.0000
  C   C142      1.0  0.33514  0.24999  0.72482  1.0000
  C   C143      1.0  0.36811  0.24999  0.74131  1.0000
  C   C144      1.0  0.43406  0.24999  0.74131  1.0000
  H   H43       1.0  0.54122  0.24999  0.75367  1.0000
  O   O43       1.0  0.66157  0.24999  0.75614  1.0000
  O   O44       1.0  0.72421  0.24999  0.72482  1.0000
  H   H44       1.0  0.65662  0.24999  0.69597  1.0000
  H   H45       1.0  0.38460  0.24999  0.67536  1.0000
  O   O45       1.0  0.43735  0.24999  0.64404  1.0000
  O   O46       1.0  0.56265  0.24999  0.64404  1.0000
  H   H46       1.0  0.61541  0.24999  0.67536  1.0000
  H   H47       1.0  0.34338  0.24999  0.69597  1.0000
  O   O47       1.0  0.27579  0.24999  0.72482  1.0000
  O   O48       1.0  0.33844  0.24999  0.75614  1.0000
  H   H48       1.0  0.45879  0.24999  0.75367  1.0000
  Cu  Cu1       1.0  0.00010  0.50000  0.00010  1.0000
  Cu  Cu2       1.0  0.75010  0.75000  0.25000  1.0000
  Cu  Cu3       1.0  0.50000  0.50000  0.50000  1.0000
  Cu  Cu4       1.0  0.75010  0.25000  0.75000  1.0000
  Cu  Cu5       1.0  0.25000  0.25000  0.75000  1.0000
  Cu  Cu6       1.0  0.25010  0.75000  0.25000  1.0000
  Cu  Cu7       1.0  0.50000  0.00010  0.50000  1.0000
  Cu  Cu8       1.0  0.00010  0.00010  0.00010  1.0000
  Zn  Zn1       1.0  0.00010  0.74999  0.12500  1.0000
  Zn  Zn2       1.0  0.50000  0.75001  0.37500  1.0000
  Zn  Zn3       1.0  0.50000  0.24999  0.62500  1.0000
  Zn  Zn4       1.0  0.00010  0.25001  0.87500  1.0000
