data_image0
_chemical_formula_structural       FeC26H7O2H2O2HC4HO2HFeC26H7O2H2O2HC4HO2HFeC26H7O2H2O2HC4HO2HFeC26H7O2H2O2HC4HO2HC6HO2HO2CuC6HO2HO2Cu3C6HO2HO2C6HO2HO2
_chemical_formula_sum              "Fe4 C144 H56 O40 Cu4"
_cell_length_a       32.4496
_cell_length_b       12.9287
_cell_length_c       63.822
_cell_angle_alpha    90
_cell_angle_beta     90.0009
_cell_angle_gamma    90

_space_group_name_H-M_alt    "P 1"
_space_group_IT_number       1

loop_
  _space_group_symop_operation_xyz
  'x, y, z'

loop_
  _atom_site_type_symbol
  _atom_site_label
  _atom_site_symmetry_multiplicity
  _atom_site_fract_x
  _atom_site_fract_y
  _atom_site_fract_z
  _atom_site_occupancy
  Fe  Fe1       1.0  0.00124  0.75000  0.02924  1.0000
  C   C1        1.0  0.47757  0.75000  0.34429  1.0000
  C   C2        1.0  0.52501  0.75000  0.34429  1.0000
  C   C3        1.0  0.54874  0.75000  0.32339  1.0000
  C   C4        1.0  0.52503  0.75000  0.30250  1.0000
  C   C5        1.0  0.47756  0.75000  0.30250  1.0000
  C   C6        1.0  0.45383  0.75000  0.32339  1.0000
  C   C7        1.0  0.54876  0.75000  0.28160  1.0000
  C   C8        1.0  0.59620  0.75000  0.28160  1.0000
  C   C9        1.0  0.61994  0.75000  0.30250  1.0000
  C   C10       1.0  0.59621  0.75000  0.32339  1.0000
  C   C11       1.0  0.45384  0.75000  0.36519  1.0000
  C   C12       1.0  0.47756  0.75000  0.38608  1.0000
  C   C13       1.0  0.52502  0.75000  0.38608  1.0000
  C   C14       1.0  0.54875  0.75000  0.36519  1.0000
  C   C15       1.0  0.40637  0.75000  0.32339  1.0000
  C   C16       1.0  0.38266  0.75000  0.30250  1.0000
  C   C17       1.0  0.40638  0.75000  0.28160  1.0000
  C   C18       1.0  0.45382  0.75000  0.28160  1.0000
  C   C19       1.0  0.38264  0.75000  0.26070  1.0000
  C   C20       1.0  0.33518  0.75000  0.26070  1.0000
  C   C21       1.0  0.31145  0.75000  0.28160  1.0000
  C   C22       1.0  0.33519  0.75000  0.30250  1.0000
  C   C23       1.0  0.66740  0.75000  0.30250  1.0000
  C   C24       1.0  0.69113  0.75000  0.28160  1.0000
  C   C25       1.0  0.66739  0.75000  0.26070  1.0000
  C   C26       1.0  0.61992  0.75000  0.26070  1.0000
  H   H1        1.0  0.53117  0.75000  0.26613  1.0000
  H   H2        1.0  0.61377  0.75000  0.33886  1.0000
  H   H3        1.0  0.41869  0.75000  0.36519  1.0000
  H   H4        1.0  0.58388  0.75000  0.36519  1.0000
  H   H5        1.0  0.38880  0.75000  0.33886  1.0000
  H   H6        1.0  0.47139  0.75000  0.26613  1.0000
  H   H7        1.0  0.40021  0.75000  0.24524  1.0000
  O   O1        1.0  0.31207  0.75000  0.24035  1.0000
  O   O2        1.0  0.26523  0.75000  0.28160  1.0000
  H   H8        1.0  0.31762  0.75000  0.31797  1.0000
  H   H9        1.0  0.68496  0.75000  0.31797  1.0000
  O   O3        1.0  0.73735  0.75000  0.28160  1.0000
  O   O4        1.0  0.69050  0.75000  0.24035  1.0000
  H   H10       1.0  0.60237  0.75000  0.24523  1.0000
  C   C27       1.0  0.54876  0.75000  0.40698  1.0000
  C   C28       1.0  0.52503  0.75000  0.42788  1.0000
  C   C29       1.0  0.47757  0.75000  0.42788  1.0000
  C   C30       1.0  0.45383  0.75000  0.40698  1.0000
  H   H11       1.0  0.58389  0.75000  0.40698  1.0000
  O   O5        1.0  0.54815  0.75000  0.44823  1.0000
  O   O6        1.0  0.45446  0.75000  0.44823  1.0000
  H   H12       1.0  0.41870  0.75000  0.40698  1.0000
  Fe  Fe2       1.0  0.50150  0.25000  0.52924  1.0000
  C   C31       1.0  0.97777  0.25000  0.84429  1.0000
  C   C32       1.0  0.02521  0.25000  0.84428  1.0000
  C   C33       1.0  0.04894  0.25000  0.82339  1.0000
  C   C34       1.0  0.02523  0.25000  0.80249  1.0000
  C   C35       1.0  0.97776  0.25000  0.80249  1.0000
  C   C36       1.0  0.95403  0.25000  0.82339  1.0000
  C   C37       1.0  0.04896  0.25000  0.78160  1.0000
  C   C38       1.0  0.09640  0.25000  0.78159  1.0000
  C   C39       1.0  0.12013  0.25000  0.80249  1.0000
  C   C40       1.0  0.09641  0.25000  0.82339  1.0000
  C   C41       1.0  0.95404  0.25000  0.86518  1.0000
  C   C42       1.0  0.97775  0.25000  0.88608  1.0000
  C   C43       1.0  0.02522  0.25000  0.88608  1.0000
  C   C44       1.0  0.04895  0.25000  0.86518  1.0000
  C   C45       1.0  0.90657  0.25000  0.82338  1.0000
  C   C46       1.0  0.88285  0.25000  0.80249  1.0000
  C   C47       1.0  0.90658  0.25000  0.78160  1.0000
  C   C48       1.0  0.95402  0.25000  0.78159  1.0000
  C   C49       1.0  0.88285  0.25000  0.76070  1.0000
  C   C50       1.0  0.83538  0.25000  0.76069  1.0000
  C   C51       1.0  0.81165  0.25000  0.78159  1.0000
  C   C52       1.0  0.83539  0.25000  0.80249  1.0000
  C   C53       1.0  0.16760  0.25000  0.80250  1.0000
  C   C54       1.0  0.19133  0.25000  0.78160  1.0000
  C   C55       1.0  0.16759  0.25000  0.76070  1.0000
  C   C56       1.0  0.12013  0.25000  0.76070  1.0000
  H   H13       1.0  0.03137  0.25000  0.76612  1.0000
  H   H14       1.0  0.11396  0.25000  0.83886  1.0000
  H   H15       1.0  0.91889  0.25000  0.86518  1.0000
  H   H16       1.0  0.08407  0.25000  0.86518  1.0000
  H   H17       1.0  0.88900  0.25000  0.83885  1.0000
  H   H18       1.0  0.97159  0.25000  0.76612  1.0000
  H   H19       1.0  0.90041  0.25000  0.74523  1.0000
  O   O7        1.0  0.81227  0.25000  0.74034  1.0000
  O   O8        1.0  0.76543  0.25000  0.78159  1.0000
  H   H20       1.0  0.81782  0.25000  0.81796  1.0000
  H   H21       1.0  0.18516  0.25000  0.81796  1.0000
  O   O9        1.0  0.23756  0.25000  0.78160  1.0000
  O   O10       1.0  0.19071  0.25000  0.74035  1.0000
  H   H22       1.0  0.10257  0.25000  0.74523  1.0000
  C   C57       1.0  0.04895  0.25000  0.90698  1.0000
  C   C58       1.0  0.02522  0.25000  0.92787  1.0000
  C   C59       1.0  0.97776  0.25000  0.92787  1.0000
  C   C60       1.0  0.95402  0.25000  0.90697  1.0000
  H   H23       1.0  0.08408  0.25000  0.90698  1.0000
  O   O11       1.0  0.04834  0.25000  0.94823  1.0000
  O   O12       1.0  0.95464  0.25000  0.94823  1.0000
  H   H24       1.0  0.91890  0.25000  0.90697  1.0000
  Fe  Fe3       1.0  0.00146  0.25000  0.97076  1.0000
  C   C61       1.0  0.97756  0.75000  0.15571  1.0000
  C   C62       1.0  0.02500  0.75000  0.15572  1.0000
  C   C63       1.0  0.04873  0.75000  0.17661  1.0000
  C   C64       1.0  0.02502  0.75000  0.19751  1.0000
  C   C65       1.0  0.97756  0.75000  0.19751  1.0000
  C   C66       1.0  0.95383  0.75000  0.17661  1.0000
  C   C67       1.0  0.04875  0.75000  0.21840  1.0000
  C   C68       1.0  0.09619  0.75000  0.21841  1.0000
  C   C69       1.0  0.11993  0.75000  0.19751  1.0000
  C   C70       1.0  0.09620  0.75000  0.17661  1.0000
  C   C71       1.0  0.95383  0.75000  0.13482  1.0000
  C   C72       1.0  0.97754  0.75000  0.11392  1.0000
  C   C73       1.0  0.02501  0.75000  0.11392  1.0000
  C   C74       1.0  0.04874  0.75000  0.13482  1.0000
  C   C75       1.0  0.90636  0.75000  0.17662  1.0000
  C   C76       1.0  0.88265  0.75000  0.19751  1.0000
  C   C77       1.0  0.90638  0.75000  0.21840  1.0000
  C   C78       1.0  0.95382  0.75000  0.21841  1.0000
  C   C79       1.0  0.88265  0.75000  0.23930  1.0000
  C   C80       1.0  0.83518  0.75000  0.23931  1.0000
  C   C81       1.0  0.81145  0.75000  0.21841  1.0000
  C   C82       1.0  0.83518  0.75000  0.19751  1.0000
  C   C83       1.0  0.16740  0.75000  0.19750  1.0000
  C   C84       1.0  0.19113  0.75000  0.21840  1.0000
  C   C85       1.0  0.16739  0.75000  0.23930  1.0000
  C   C86       1.0  0.11993  0.75000  0.23930  1.0000
  H   H25       1.0  0.03117  0.75000  0.23388  1.0000
  H   H26       1.0  0.11376  0.75000  0.16114  1.0000
  H   H27       1.0  0.91868  0.75000  0.13482  1.0000
  H   H28       1.0  0.08386  0.75000  0.13482  1.0000
  H   H29       1.0  0.88879  0.75000  0.16115  1.0000
  H   H30       1.0  0.97139  0.75000  0.23388  1.0000
  H   H31       1.0  0.90021  0.75000  0.25477  1.0000
  O   O13       1.0  0.81207  0.75000  0.25966  1.0000
  O   O14       1.0  0.76522  0.75000  0.21841  1.0000
  H   H32       1.0  0.81762  0.75000  0.18204  1.0000
  H   H33       1.0  0.18495  0.75000  0.18204  1.0000
  O   O15       1.0  0.23735  0.75000  0.21840  1.0000
  O   O16       1.0  0.19051  0.75000  0.25965  1.0000
  H   H34       1.0  0.10237  0.75000  0.25477  1.0000
  C   C87       1.0  0.04874  0.75000  0.09302  1.0000
  C   C88       1.0  0.02501  0.75000  0.07213  1.0000
  C   C89       1.0  0.97755  0.75000  0.07213  1.0000
  C   C90       1.0  0.95381  0.75000  0.09303  1.0000
  H   H35       1.0  0.08387  0.75000  0.09302  1.0000
  O   O17       1.0  0.04812  0.75000  0.05177  1.0000
  O   O18       1.0  0.95443  0.75000  0.05177  1.0000
  H   H36       1.0  0.91869  0.75000  0.09303  1.0000
  Fe  Fe4       1.0  0.50131  0.75000  0.47077  1.0000
  C   C91       1.0  0.47777  0.25000  0.65571  1.0000
  C   C92       1.0  0.52521  0.25000  0.65571  1.0000
  C   C93       1.0  0.54894  0.25000  0.67661  1.0000
  C   C94       1.0  0.52523  0.25000  0.69750  1.0000
  C   C95       1.0  0.47776  0.25000  0.69750  1.0000
  C   C96       1.0  0.45403  0.25000  0.67660  1.0000
  C   C97       1.0  0.54896  0.25000  0.71840  1.0000
  C   C98       1.0  0.59640  0.25000  0.71840  1.0000
  C   C99       1.0  0.62013  0.25000  0.69750  1.0000
  C   C100      1.0  0.59641  0.25000  0.67661  1.0000
  C   C101      1.0  0.45404  0.25000  0.63481  1.0000
  C   C102      1.0  0.47775  0.25000  0.61392  1.0000
  C   C103      1.0  0.52522  0.25000  0.61392  1.0000
  C   C104      1.0  0.54895  0.25000  0.63481  1.0000
  C   C105      1.0  0.40657  0.25000  0.67661  1.0000
  C   C106      1.0  0.38285  0.25000  0.69750  1.0000
  C   C107      1.0  0.40658  0.25000  0.71840  1.0000
  C   C108      1.0  0.45402  0.25000  0.71840  1.0000
  C   C109      1.0  0.38285  0.25000  0.73929  1.0000
  C   C110      1.0  0.33538  0.25000  0.73930  1.0000
  C   C111      1.0  0.31165  0.25000  0.71840  1.0000
  C   C112      1.0  0.33539  0.25000  0.69750  1.0000
  C   C113      1.0  0.66760  0.25000  0.69750  1.0000
  C   C114      1.0  0.69133  0.25000  0.71840  1.0000
  C   C115      1.0  0.66759  0.25000  0.73930  1.0000
  C   C116      1.0  0.62013  0.25000  0.73930  1.0000
  H   H37       1.0  0.53137  0.25000  0.73387  1.0000
  H   H38       1.0  0.61396  0.25000  0.66114  1.0000
  H   H39       1.0  0.41889  0.25000  0.63481  1.0000
  H   H40       1.0  0.58407  0.25000  0.63481  1.0000
  H   H41       1.0  0.38900  0.25000  0.66114  1.0000
  H   H42       1.0  0.47159  0.25000  0.73387  1.0000
  H   H43       1.0  0.40041  0.25000  0.75476  1.0000
  O   O19       1.0  0.31227  0.25000  0.75965  1.0000
  O   O20       1.0  0.26543  0.25000  0.71840  1.0000
  H   H44       1.0  0.31782  0.25000  0.68203  1.0000
  H   H45       1.0  0.68516  0.25000  0.68203  1.0000
  O   O21       1.0  0.73755  0.25000  0.71840  1.0000
  O   O22       1.0  0.69071  0.25000  0.75965  1.0000
  H   H46       1.0  0.60257  0.25000  0.75477  1.0000
  C   C117      1.0  0.54896  0.25000  0.59302  1.0000
  C   C118      1.0  0.52523  0.25000  0.57212  1.0000
  C   C119      1.0  0.47776  0.25000  0.57212  1.0000
  C   C120      1.0  0.45402  0.25000  0.59302  1.0000
  H   H47       1.0  0.58408  0.25000  0.59302  1.0000
  O   O23       1.0  0.54834  0.25000  0.55177  1.0000
  O   O24       1.0  0.45465  0.25000  0.55177  1.0000
  H   H48       1.0  0.41890  0.25000  0.59302  1.0000
  C   C121      1.0  0.96611  0.46866  0.01095  1.0000
  C   C122      1.0  0.98378  0.40311  0.99598  1.0000
  C   C123      1.0  0.01902  0.43446  0.98503  1.0000
  C   C124      1.0  0.03659  0.53135  0.98905  1.0000
  C   C125      1.0  0.01892  0.59689  0.00402  1.0000
  C   C126      1.0  0.98368  0.56554  0.01497  1.0000
  H   H49       1.0  0.93969  0.44515  0.01916  1.0000
  O   O25       1.0  0.96797  0.31591  0.99236  1.0000
  O   O26       1.0  0.03492  0.37547  0.97155  1.0000
  H   H50       1.0  0.06301  0.55485  0.98084  1.0000
  O   O27       1.0  0.03473  0.68409  0.00764  1.0000
  O   O28       1.0  0.96778  0.62453  0.02845  1.0000
  Cu  Cu1       1.0  0.75129  0.75000  0.25000  1.0000
  C   C127      1.0  0.46617  0.46867  0.48905  1.0000
  C   C128      1.0  0.48374  0.56555  0.48503  1.0000
  C   C129      1.0  0.51898  0.59688  0.49598  1.0000
  C   C130      1.0  0.53664  0.53133  0.51095  1.0000
  C   C131      1.0  0.51907  0.43445  0.51497  1.0000
  C   C132      1.0  0.48383  0.40312  0.50402  1.0000
  H   H51       1.0  0.43974  0.44517  0.48083  1.0000
  O   O29       1.0  0.46784  0.62455  0.47155  1.0000
  O   O30       1.0  0.53479  0.68408  0.49236  1.0000
  H   H52       1.0  0.56307  0.55483  0.51917  1.0000
  O   O31       1.0  0.53497  0.37545  0.52845  1.0000
  O   O32       1.0  0.46802  0.31592  0.50764  1.0000
  Cu  Cu2       1.0  0.75149  0.25000  0.75000  1.0000
  Cu  Cu3       1.0  0.25149  0.25000  0.75000  1.0000
  Cu  Cu4       1.0  0.25129  0.75000  0.25000  1.0000
  C   C133      1.0  0.46619  0.96882  0.51099  1.0000
  C   C134      1.0  0.48384  0.06563  0.51499  1.0000
  C   C135      1.0  0.51906  0.09681  0.50400  1.0000
  C   C136      1.0  0.53662  0.03118  0.48901  1.0000
  C   C137      1.0  0.51897  0.93437  0.48501  1.0000
  C   C138      1.0  0.48375  0.90319  0.49600  1.0000
  H   H53       1.0  0.43978  0.94543  0.51923  1.0000
  O   O33       1.0  0.46804  0.12470  0.52848  1.0000
  O   O34       1.0  0.53495  0.18394  0.50761  1.0000
  H   H54       1.0  0.56303  0.05457  0.48077  1.0000
  O   O35       1.0  0.53477  0.87530  0.47152  1.0000
  O   O36       1.0  0.46786  0.81606  0.49239  1.0000
  C   C139      1.0  0.96613  0.96883  0.98901  1.0000
  C   C140      1.0  0.98379  0.06563  0.98501  1.0000
  C   C141      1.0  0.01901  0.09680  0.99600  1.0000
  C   C142      1.0  0.03657  0.03117  0.01099  1.0000
  C   C143      1.0  0.01891  0.93437  0.01499  1.0000
  C   C144      1.0  0.98369  0.90320  0.00400  1.0000
  H   H55       1.0  0.93972  0.94546  0.98077  1.0000
  O   O37       1.0  0.96799  0.12470  0.97152  1.0000
  O   O38       1.0  0.03490  0.18392  0.99239  1.0000
  H   H56       1.0  0.06298  0.05454  0.01923  1.0000
  O   O39       1.0  0.03471  0.87530  0.02848  1.0000
  O   O40       1.0  0.96780  0.81608  0.00761  1.0000
