data_image0
_chemical_formula_structural       FeC18HO2H2O2H2O2HFeC18HO2H2O2H2O2HFeC18HO2H2O2H2O2HFeC18HO2H2O2H2O2HC6HO2HO2CuC6HO2HO2Cu3C6HO2HO2C6HO2HO2
_chemical_formula_sum              "Fe4 C96 H32 O40 Cu4"
_cell_length_a       21.2297
_cell_length_b       12.9279
_cell_length_c       44.3882
_cell_angle_alpha    90
_cell_angle_beta     90
_cell_angle_gamma    90

_space_group_name_H-M_alt    "P 1"
_space_group_IT_number       1

loop_
  _space_group_symop_operation_xyz
  'x, y, z'

loop_
  _atom_site_type_symbol
  _atom_site_label
  _atom_site_symmetry_multiplicity
  _atom_site_fract_x
  _atom_site_fract_y
  _atom_site_fract_z
  _atom_site_occupancy
  Fe  Fe1       1.0  0.00010  0.75000  0.04204  1.0000
  C   C1        1.0  0.46703  0.75000  0.34634  1.0000
  C   C2        1.0  0.53297  0.75000  0.34634  1.0000
  C   C3        1.0  0.56595  0.75000  0.31903  1.0000
  C   C4        1.0  0.53297  0.75000  0.29172  1.0000
  C   C5        1.0  0.46703  0.75000  0.29172  1.0000
  C   C6        1.0  0.43405  0.75000  0.31903  1.0000
  C   C7        1.0  0.56595  0.75000  0.26440  1.0000
  C   C8        1.0  0.63189  0.75000  0.26440  1.0000
  C   C9        1.0  0.66486  0.75000  0.29172  1.0000
  C   C10       1.0  0.63189  0.75000  0.31903  1.0000
  C   C11       1.0  0.43406  0.75000  0.37366  1.0000
  C   C12       1.0  0.46703  0.75000  0.40097  1.0000
  C   C13       1.0  0.53297  0.75000  0.40097  1.0000
  C   C14       1.0  0.56595  0.75000  0.37366  1.0000
  C   C15       1.0  0.36811  0.75000  0.31903  1.0000
  C   C16       1.0  0.33514  0.75000  0.29172  1.0000
  C   C17       1.0  0.36811  0.75000  0.26440  1.0000
  C   C18       1.0  0.43405  0.75000  0.26440  1.0000
  H   H1        1.0  0.54122  0.75000  0.24392  1.0000
  O   O1        1.0  0.66157  0.75000  0.23982  1.0000
  O   O2        1.0  0.72421  0.75000  0.29172  1.0000
  H   H2        1.0  0.65662  0.75000  0.33952  1.0000
  H   H3        1.0  0.38460  0.75000  0.37366  1.0000
  O   O3        1.0  0.43735  0.75000  0.42556  1.0000
  O   O4        1.0  0.56265  0.75000  0.42556  1.0000
  H   H4        1.0  0.61540  0.75000  0.37366  1.0000
  H   H5        1.0  0.34338  0.75000  0.33952  1.0000
  O   O5        1.0  0.27579  0.75000  0.29172  1.0000
  O   O6        1.0  0.33843  0.75000  0.23982  1.0000
  H   H6        1.0  0.45878  0.75000  0.24392  1.0000
  Fe  Fe2       1.0  0.50000  0.25000  0.54204  1.0000
  C   C19       1.0  0.96713  0.25000  0.84635  1.0000
  C   C20       1.0  0.03307  0.25000  0.84635  1.0000
  C   C21       1.0  0.06605  0.25000  0.81903  1.0000
  C   C22       1.0  0.03307  0.25000  0.79172  1.0000
  C   C23       1.0  0.96713  0.25000  0.79172  1.0000
  C   C24       1.0  0.93415  0.25000  0.81903  1.0000
  C   C25       1.0  0.06605  0.25000  0.76441  1.0000
  C   C26       1.0  0.13199  0.25000  0.76441  1.0000
  C   C27       1.0  0.16496  0.25000  0.79172  1.0000
  C   C28       1.0  0.13199  0.25000  0.81903  1.0000
  C   C29       1.0  0.93415  0.25000  0.87366  1.0000
  C   C30       1.0  0.96713  0.25000  0.90098  1.0000
  C   C31       1.0  0.03307  0.25000  0.90098  1.0000
  C   C32       1.0  0.06605  0.25000  0.87366  1.0000
  C   C33       1.0  0.86821  0.25000  0.81903  1.0000
  C   C34       1.0  0.83524  0.25000  0.79172  1.0000
  C   C35       1.0  0.86821  0.25000  0.76441  1.0000
  C   C36       1.0  0.93415  0.25000  0.76441  1.0000
  H   H7        1.0  0.04132  0.25000  0.74392  1.0000
  O   O7        1.0  0.16167  0.25000  0.73982  1.0000
  O   O8        1.0  0.22431  0.25000  0.79172  1.0000
  H   H8        1.0  0.15672  0.25000  0.83952  1.0000
  H   H9        1.0  0.88470  0.25000  0.87366  1.0000
  O   O9        1.0  0.93745  0.25000  0.92556  1.0000
  O   O10       1.0  0.06275  0.25000  0.92556  1.0000
  H   H10       1.0  0.11550  0.25000  0.87366  1.0000
  H   H11       1.0  0.84348  0.25000  0.83952  1.0000
  O   O11       1.0  0.77589  0.25000  0.79172  1.0000
  O   O12       1.0  0.83853  0.25000  0.73982  1.0000
  H   H12       1.0  0.95888  0.25000  0.74392  1.0000
  Fe  Fe3       1.0  0.00010  0.25000  0.95796  1.0000
  C   C37       1.0  0.96713  0.75000  0.15365  1.0000
  C   C38       1.0  0.03307  0.75000  0.15365  1.0000
  C   C39       1.0  0.06605  0.75000  0.18096  1.0000
  C   C40       1.0  0.03307  0.75000  0.20828  1.0000
  C   C41       1.0  0.96713  0.75000  0.20828  1.0000
  C   C42       1.0  0.93415  0.75000  0.18096  1.0000
  C   C43       1.0  0.06605  0.75000  0.23559  1.0000
  C   C44       1.0  0.13199  0.75000  0.23559  1.0000
  C   C45       1.0  0.16496  0.75000  0.20828  1.0000
  C   C46       1.0  0.13199  0.75000  0.18096  1.0000
  C   C47       1.0  0.93415  0.75000  0.12634  1.0000
  C   C48       1.0  0.96713  0.75000  0.09902  1.0000
  C   C49       1.0  0.03307  0.75000  0.09902  1.0000
  C   C50       1.0  0.06605  0.75000  0.12634  1.0000
  C   C51       1.0  0.86821  0.75000  0.18096  1.0000
  C   C52       1.0  0.83524  0.75000  0.20828  1.0000
  C   C53       1.0  0.86821  0.75000  0.23559  1.0000
  C   C54       1.0  0.93415  0.75000  0.23559  1.0000
  H   H13       1.0  0.04132  0.75000  0.25608  1.0000
  O   O13       1.0  0.16167  0.75000  0.26018  1.0000
  O   O14       1.0  0.22431  0.75000  0.20828  1.0000
  H   H14       1.0  0.15672  0.75000  0.16048  1.0000
  H   H15       1.0  0.88470  0.75000  0.12634  1.0000
  O   O15       1.0  0.93745  0.75000  0.07444  1.0000
  O   O16       1.0  0.06275  0.75000  0.07444  1.0000
  H   H16       1.0  0.11550  0.75000  0.12634  1.0000
  H   H17       1.0  0.84348  0.75000  0.16048  1.0000
  O   O17       1.0  0.77589  0.75000  0.20828  1.0000
  O   O18       1.0  0.83853  0.75000  0.26018  1.0000
  H   H18       1.0  0.95888  0.75000  0.25608  1.0000
  Fe  Fe4       1.0  0.50000  0.75000  0.45796  1.0000
  C   C55       1.0  0.46703  0.25000  0.65366  1.0000
  C   C56       1.0  0.53297  0.25000  0.65366  1.0000
  C   C57       1.0  0.56595  0.25000  0.68097  1.0000
  C   C58       1.0  0.53297  0.25000  0.70828  1.0000
  C   C59       1.0  0.46703  0.25000  0.70828  1.0000
  C   C60       1.0  0.43405  0.25000  0.68097  1.0000
  C   C61       1.0  0.56595  0.25000  0.73560  1.0000
  C   C62       1.0  0.63189  0.25000  0.73560  1.0000
  C   C63       1.0  0.66486  0.25000  0.70828  1.0000
  C   C64       1.0  0.63189  0.25000  0.68097  1.0000
  C   C65       1.0  0.43405  0.25000  0.62634  1.0000
  C   C66       1.0  0.46703  0.25000  0.59903  1.0000
  C   C67       1.0  0.53297  0.25000  0.59903  1.0000
  C   C68       1.0  0.56595  0.25000  0.62634  1.0000
  C   C69       1.0  0.36811  0.25000  0.68097  1.0000
  C   C70       1.0  0.33514  0.25000  0.70828  1.0000
  C   C71       1.0  0.36811  0.25000  0.73560  1.0000
  C   C72       1.0  0.43405  0.25000  0.73560  1.0000
  H   H19       1.0  0.54122  0.25000  0.75608  1.0000
  O   O19       1.0  0.66157  0.25000  0.76018  1.0000
  O   O20       1.0  0.72421  0.25000  0.70828  1.0000
  H   H20       1.0  0.65662  0.25000  0.66048  1.0000
  H   H21       1.0  0.38460  0.25000  0.62634  1.0000
  O   O21       1.0  0.43735  0.25000  0.57444  1.0000
  O   O22       1.0  0.56265  0.25000  0.57444  1.0000
  H   H22       1.0  0.61540  0.25000  0.62634  1.0000
  H   H23       1.0  0.34338  0.25000  0.66048  1.0000
  O   O23       1.0  0.27579  0.25000  0.70828  1.0000
  O   O24       1.0  0.33843  0.25000  0.76018  1.0000
  H   H24       1.0  0.45878  0.25000  0.75608  1.0000
  C   C73       1.0  0.94626  0.46874  0.01577  1.0000
  C   C74       1.0  0.97318  0.40315  0.99423  1.0000
  C   C75       1.0  0.02702  0.43441  0.97846  1.0000
  C   C76       1.0  0.05394  0.53126  0.98423  1.0000
  C   C77       1.0  0.02702  0.59685  0.00577  1.0000
  C   C78       1.0  0.97318  0.56559  0.02154  1.0000
  H   H25       1.0  0.90587  0.44529  0.02760  1.0000
  O   O25       1.0  0.94895  0.31598  0.98903  1.0000
  O   O26       1.0  0.05125  0.37538  0.95907  1.0000
  H   H26       1.0  0.09433  0.55471  0.97240  1.0000
  O   O27       1.0  0.05125  0.68402  0.01097  1.0000
  O   O28       1.0  0.94895  0.62462  0.04093  1.0000
  Cu  Cu1       1.0  0.75010  0.75000  0.25000  1.0000
  C   C79       1.0  0.44616  0.46874  0.48423  1.0000
  C   C80       1.0  0.47308  0.56559  0.47846  1.0000
  C   C81       1.0  0.52692  0.59685  0.49423  1.0000
  C   C82       1.0  0.55384  0.53126  0.51577  1.0000
  C   C83       1.0  0.52692  0.43441  0.52154  1.0000
  C   C84       1.0  0.47308  0.40315  0.50577  1.0000
  H   H27       1.0  0.40577  0.44529  0.47240  1.0000
  O   O29       1.0  0.44885  0.62462  0.45907  1.0000
  O   O30       1.0  0.55115  0.68402  0.48903  1.0000
  H   H28       1.0  0.59423  0.55471  0.52760  1.0000
  O   O31       1.0  0.55115  0.37538  0.54093  1.0000
  O   O32       1.0  0.44885  0.31598  0.51097  1.0000
  Cu  Cu2       1.0  0.75010  0.25000  0.75000  1.0000
  Cu  Cu3       1.0  0.25000  0.25000  0.75000  1.0000
  Cu  Cu4       1.0  0.25010  0.75000  0.25000  1.0000
  C   C85       1.0  0.44616  0.96874  0.51577  1.0000
  C   C86       1.0  0.47308  0.06559  0.52154  1.0000
  C   C87       1.0  0.52692  0.09685  0.50577  1.0000
  C   C88       1.0  0.55384  0.03126  0.48423  1.0000
  C   C89       1.0  0.52692  0.93441  0.47846  1.0000
  C   C90       1.0  0.47308  0.90315  0.49423  1.0000
  H   H29       1.0  0.40577  0.94529  0.52760  1.0000
  O   O33       1.0  0.44885  0.12462  0.54093  1.0000
  O   O34       1.0  0.55115  0.18402  0.51097  1.0000
  H   H30       1.0  0.59423  0.05471  0.47240  1.0000
  O   O35       1.0  0.55115  0.87538  0.45907  1.0000
  O   O36       1.0  0.44885  0.81598  0.48903  1.0000
  C   C91       1.0  0.94626  0.96874  0.98423  1.0000
  C   C92       1.0  0.97318  0.06559  0.97846  1.0000
  C   C93       1.0  0.02702  0.09685  0.99423  1.0000
  C   C94       1.0  0.05394  0.03126  0.01577  1.0000
  C   C95       1.0  0.02702  0.93441  0.02154  1.0000
  C   C96       1.0  0.97318  0.90315  0.00577  1.0000
  H   H31       1.0  0.90587  0.94529  0.97240  1.0000
  O   O37       1.0  0.94895  0.12462  0.95907  1.0000
  O   O38       1.0  0.05125  0.18402  0.98903  1.0000
  H   H32       1.0  0.09433  0.05471  0.02760  1.0000
  O   O39       1.0  0.05125  0.87538  0.04093  1.0000
  O   O40       1.0  0.94895  0.81598  0.01097  1.0000
