data_image0
_chemical_formula_structural       Fe8C6HO2HO2C6HO2HO2C6HO2HO2C6HO2HO2C6HO2HO2C6HO2HO2C6HO2HO2C6HO2HO2C6HO2HO2C6HO2HO2C6HO2HO2C6HO2HO2
_chemical_formula_sum              "Fe8 C72 H24 O48"
_cell_length_a       17.3383
_cell_length_b       17.3383
_cell_length_c       28.3759
_cell_angle_alpha    89.9992
_cell_angle_beta     89.9995
_cell_angle_gamma    90

_space_group_name_H-M_alt    "P 1"
_space_group_IT_number       1

loop_
  _space_group_symop_operation_xyz
  'x, y, z'

loop_
  _atom_site_type_symbol
  _atom_site_label
  _atom_site_symmetry_multiplicity
  _atom_site_fract_x
  _atom_site_fract_y
  _atom_site_fract_z
  _atom_site_occupancy
  Fe  Fe1       1.0  0.00010  0.00010  0.13296  1.0000
  Fe  Fe2       1.0  0.00010  0.00010  0.86704  1.0000
  Fe  Fe3       1.0  0.50002  0.50006  0.63296  1.0000
  Fe  Fe4       1.0  0.49997  0.50011  0.36703  1.0000
  Fe  Fe5       1.0  0.14716  0.35286  0.25003  1.0000
  Fe  Fe6       1.0  0.35293  0.85288  0.75003  1.0000
  Fe  Fe7       1.0  0.85279  0.64723  0.24998  1.0000
  Fe  Fe8       1.0  0.64730  0.14725  0.74997  1.0000
  C   C1        1.0  0.94288  0.44295  0.25000  1.0000
  C   C2        1.0  0.02087  0.42205  0.25001  1.0000
  C   C3        1.0  0.07797  0.47915  0.25001  1.0000
  C   C4        1.0  0.05707  0.55714  0.25000  1.0000
  C   C5        1.0  0.97908  0.57804  0.24999  1.0000
  C   C6        1.0  0.92198  0.52094  0.24999  1.0000
  H   H1        1.0  0.90006  0.40013  0.25000  1.0000
  O   O1        1.0  0.03968  0.35185  0.25002  1.0000
  O   O2        1.0  0.14817  0.46034  0.25002  1.0000
  H   H2        1.0  0.09989  0.59996  0.25000  1.0000
  O   O3        1.0  0.96027  0.64823  0.24998  1.0000
  O   O4        1.0  0.85178  0.53975  0.24998  1.0000
  C   C7        1.0  0.49332  0.00681  0.70101  1.0000
  C   C8        1.0  0.44727  0.95399  0.72552  1.0000
  C   C9        1.0  0.45407  0.94723  0.77451  1.0000
  C   C10       1.0  0.50692  0.99330  0.79899  1.0000
  C   C11       1.0  0.55297  0.04612  0.77448  1.0000
  C   C12       1.0  0.54617  0.05288  0.72549  1.0000
  H   H3        1.0  0.48822  0.01188  0.66427  1.0000
  O   O5        1.0  0.39971  0.91253  0.70349  1.0000
  O   O6        1.0  0.41263  0.89969  0.79657  1.0000
  H   H4        1.0  0.51202  0.98823  0.83573  1.0000
  O   O7        1.0  0.60053  0.08758  0.79651  1.0000
  O   O8        1.0  0.58761  0.10042  0.70343  1.0000
  C   C13       1.0  0.06246  0.21675  0.15374  1.0000
  C   C14       1.0  0.09869  0.25110  0.19251  1.0000
  C   C15       1.0  0.11594  0.20700  0.23247  1.0000
  C   C16       1.0  0.09697  0.12854  0.23366  1.0000
  C   C17       1.0  0.06074  0.09418  0.19489  1.0000
  C   C18       1.0  0.04349  0.13828  0.15493  1.0000
  H   H5        1.0  0.04952  0.24982  0.12377  1.0000
  O   O9        1.0  0.11576  0.32172  0.19145  1.0000
  O   O10       1.0  0.14855  0.23792  0.26737  1.0000
  H   H6        1.0  0.10991  0.09546  0.26363  1.0000
  O   O11       1.0  0.04367  0.02356  0.19595  1.0000
  O   O12       1.0  0.01088  0.10736  0.12003  1.0000
  C   C19       1.0  0.16338  0.85298  0.83290  1.0000
  C   C20       1.0  0.22445  0.85906  0.80084  1.0000
  C   C21       1.0  0.23377  0.92646  0.77428  1.0000
  C   C22       1.0  0.18202  0.98779  0.77977  1.0000
  C   C23       1.0  0.12095  0.98171  0.81184  1.0000
  C   C24       1.0  0.11163  0.91430  0.83840  1.0000
  H   H7        1.0  0.15639  0.80243  0.85282  1.0000
  O   O13       1.0  0.27103  0.80387  0.79589  1.0000
  O   O14       1.0  0.28874  0.93194  0.74542  1.0000
  H   H8        1.0  0.18901  0.03834  0.75985  1.0000
  O   O15       1.0  0.07437  0.03690  0.81678  1.0000
  O   O16       1.0  0.05666  0.90883  0.86725  1.0000
  C   C25       1.0  0.95375  0.78040  0.15917  1.0000
  C   C26       1.0  0.90944  0.74754  0.19520  1.0000
  C   C27       1.0  0.87605  0.79464  0.22970  1.0000
  C   C28       1.0  0.88698  0.87460  0.22816  1.0000
  C   C29       1.0  0.93129  0.90747  0.19213  1.0000
  C   C30       1.0  0.96467  0.86036  0.15764  1.0000
  H   H9        1.0  0.97878  0.74507  0.13330  1.0000
  O   O17       1.0  0.89960  0.67557  0.19658  1.0000
  O   O18       1.0  0.83618  0.76506  0.26212  1.0000
  H   H10       1.0  0.86194  0.90993  0.25403  1.0000
  O   O19       1.0  0.94112  0.97943  0.19075  1.0000
  O   O20       1.0  0.00455  0.88994  0.12521  1.0000
  C   C31       1.0  0.82622  0.01853  0.77417  1.0000
  C   C32       1.0  0.77046  0.07676  0.77144  1.0000
  C   C33       1.0  0.77177  0.13804  0.80356  1.0000
  C   C34       1.0  0.82883  0.14108  0.83842  1.0000
  C   C35       1.0  0.88459  0.08285  0.84115  1.0000
  C   C36       1.0  0.88328  0.02157  0.80903  1.0000
  H   H11       1.0  0.82523  0.97258  0.75008  1.0000
  O   O21       1.0  0.71910  0.07403  0.74007  1.0000
  O   O22       1.0  0.72159  0.19045  0.80110  1.0000
  H   H12       1.0  0.82981  0.18703  0.86251  1.0000
  O   O23       1.0  0.93595  0.08558  0.87252  1.0000
  O   O24       1.0  0.93346  0.96916  0.81149  1.0000
  C   C37       1.0  0.48778  0.68193  0.72025  1.0000
  C   C38       1.0  0.42648  0.73370  0.72577  1.0000
  C   C39       1.0  0.35905  0.72442  0.69923  1.0000
  C   C40       1.0  0.35293  0.66336  0.66716  1.0000
  C   C41       1.0  0.41423  0.61159  0.66164  1.0000
  C   C42       1.0  0.48166  0.62088  0.68818  1.0000
  H   H13       1.0  0.53835  0.68890  0.74016  1.0000
  O   O25       1.0  0.43199  0.78865  0.75463  1.0000
  O   O26       1.0  0.30388  0.77101  0.70420  1.0000
  H   H14       1.0  0.30236  0.65640  0.64725  1.0000
  O   O27       1.0  0.40872  0.55664  0.63277  1.0000
  O   O28       1.0  0.53683  0.57428  0.68321  1.0000
  C   C43       1.0  0.62523  0.61540  0.27277  1.0000
  C   C44       1.0  0.70531  0.62519  0.27074  1.0000
  C   C45       1.0  0.75264  0.58958  0.30427  1.0000
  C   C46       1.0  0.71990  0.54419  0.33983  1.0000
  C   C47       1.0  0.63982  0.53440  0.34186  1.0000
  C   C48       1.0  0.59248  0.57001  0.30833  1.0000
  H   H15       1.0  0.58972  0.64211  0.24762  1.0000
  O   O29       1.0  0.73478  0.66605  0.23874  1.0000
  O   O30       1.0  0.82472  0.59839  0.30245  1.0000
  H   H16       1.0  0.75540  0.51748  0.36498  1.0000
  O   O31       1.0  0.61034  0.49354  0.37386  1.0000
  O   O32       1.0  0.52041  0.56120  0.31016  1.0000
  C   C49       1.0  0.64103  0.32882  0.66153  1.0000
  C   C50       1.0  0.63803  0.27173  0.69637  1.0000
  C   C51       1.0  0.57678  0.27039  0.72851  1.0000
  C   C52       1.0  0.51852  0.32612  0.72580  1.0000
  C   C53       1.0  0.52152  0.38320  0.69095  1.0000
  C   C54       1.0  0.58277  0.38455  0.65882  1.0000
  H   H17       1.0  0.68697  0.32982  0.63742  1.0000
  O   O33       1.0  0.69046  0.22157  0.69882  1.0000
  O   O34       1.0  0.57408  0.21901  0.75987  1.0000
  H   H18       1.0  0.47258  0.32511  0.74990  1.0000
  O   O35       1.0  0.46909  0.43337  0.68851  1.0000
  O   O36       1.0  0.58547  0.43593  0.62745  1.0000
  C   C55       1.0  0.37494  0.38199  0.27408  1.0000
  C   C56       1.0  0.29475  0.37356  0.27143  1.0000
  C   C57       1.0  0.24720  0.41194  0.30367  1.0000
  C   C58       1.0  0.27983  0.45875  0.33858  1.0000
  C   C59       1.0  0.36002  0.46719  0.34124  1.0000
  C   C60       1.0  0.40757  0.42881  0.30899  1.0000
  H   H19       1.0  0.41060  0.35321  0.24990  1.0000
  O   O37       1.0  0.26538  0.33143  0.24001  1.0000
  O   O38       1.0  0.17503  0.40435  0.30128  1.0000
  H   H20       1.0  0.24417  0.48754  0.36277  1.0000
  O   O39       1.0  0.38939  0.50932  0.37265  1.0000
  O   O40       1.0  0.47974  0.43640  0.31138  1.0000
  C   C61       1.0  0.07893  0.01777  0.00010  1.0000
  C   C62       1.0  0.03955  0.00896  0.95728  1.0000
  C   C63       1.0  0.96075  0.99132  0.95727  1.0000
  C   C64       1.0  0.92134  0.98249  0.99990  1.0000
  C   C65       1.0  0.96073  0.99130  0.04272  1.0000
  C   C66       1.0  0.03952  0.00894  0.04273  1.0000
  H   H21       1.0  0.13803  0.03100  0.00010  1.0000
  O   O41       1.0  0.07501  0.01691  0.91883  1.0000
  O   O42       1.0  0.92530  0.98340  0.91881  1.0000
  H   H22       1.0  0.86225  0.96926  0.99990  1.0000
  O   O43       1.0  0.92526  0.98335  0.08117  1.0000
  O   O44       1.0  0.07497  0.01687  0.08119  1.0000
  C   C67       1.0  0.48235  0.42130  0.49999  1.0000
  C   C68       1.0  0.49117  0.46068  0.54272  1.0000
  C   C69       1.0  0.50881  0.53948  0.54273  1.0000
  C   C70       1.0  0.51763  0.57889  0.50001  1.0000
  C   C71       1.0  0.50880  0.53950  0.45728  1.0000
  C   C72       1.0  0.49116  0.46071  0.45727  1.0000
  H   H23       1.0  0.46912  0.36220  0.49999  1.0000
  O   O45       1.0  0.48324  0.42521  0.58117  1.0000
  O   O46       1.0  0.51676  0.57492  0.58119  1.0000
  H   H24       1.0  0.53086  0.63798  0.50001  1.0000
  O   O47       1.0  0.51674  0.57497  0.41882  1.0000
  O   O48       1.0  0.48322  0.42526  0.41881  1.0000
