data_image0
_chemical_formula_structural       Fe12C6HO2HO2C6HO2HO2C6HO2HO2C6HO2HO2C6HO2HO2C6HO2HO2C6HO2HO2C6HO2HO2C6HO2HO2C6HO2HO2C6HO2HO2C6HO2HO2C6HO2HO2C6HO2HO2C6HO2HO2C6HO2HO2C6HO2HO2C6HO2HO2
_chemical_formula_sum              "Fe12 C108 H36 O72"
_cell_length_a       29.0635
_cell_length_b       29.0635
_cell_length_c       18.1983
_cell_angle_alpha    90
_cell_angle_beta     90
_cell_angle_gamma    119.997

_space_group_name_H-M_alt    "P 1"
_space_group_IT_number       1

loop_
  _space_group_symop_operation_xyz
  'x, y, z'

loop_
  _atom_site_type_symbol
  _atom_site_label
  _atom_site_symmetry_multiplicity
  _atom_site_fract_x
  _atom_site_fract_y
  _atom_site_fract_z
  _atom_site_occupancy
  Fe  Fe1       1.0  0.26969  0.13484  0.08333  1.0000
  Fe  Fe2       1.0  0.13484  0.26969  0.24999  1.0000
  Fe  Fe3       1.0  0.86515  0.13485  0.41666  1.0000
  Fe  Fe4       1.0  0.73031  0.86516  0.58333  1.0000
  Fe  Fe5       1.0  0.86516  0.73031  0.75000  1.0000
  Fe  Fe6       1.0  0.13485  0.86515  0.91666  1.0000
  Fe  Fe7       1.0  0.56755  0.28379  0.08333  1.0000
  Fe  Fe8       1.0  0.28379  0.56755  0.25000  1.0000
  Fe  Fe9       1.0  0.71621  0.28379  0.41666  1.0000
  Fe  Fe10      1.0  0.43245  0.71621  0.58333  1.0000
  Fe  Fe11      1.0  0.71621  0.43245  0.75000  1.0000
  Fe  Fe12      1.0  0.28379  0.71621  0.91666  1.0000
  C   C1        1.0  0.41862  0.25569  0.06256  1.0000
  C   C2        1.0  0.46679  0.25659  0.07294  1.0000
  C   C3        1.0  0.46680  0.21021  0.09371  1.0000
  C   C4        1.0  0.41863  0.16294  0.10410  1.0000
  C   C5        1.0  0.37046  0.16204  0.09371  1.0000
  C   C6        1.0  0.37045  0.20842  0.07294  1.0000
  H   H1        1.0  0.41861  0.29048  0.04698  1.0000
  O   O1        1.0  0.51014  0.29914  0.06360  1.0000
  O   O2        1.0  0.51015  0.21102  0.10306  1.0000
  H   H2        1.0  0.41864  0.12815  0.11967  1.0000
  O   O3        1.0  0.32711  0.11949  0.10306  1.0000
  O   O4        1.0  0.32710  0.20761  0.06360  1.0000
  C   C7        1.0  0.16293  0.41863  0.22923  1.0000
  C   C8        1.0  0.21021  0.46679  0.23962  1.0000
  C   C9        1.0  0.25659  0.46679  0.26038  1.0000
  C   C10       1.0  0.25569  0.41861  0.27077  1.0000
  C   C11       1.0  0.20841  0.37045  0.26038  1.0000
  C   C12       1.0  0.16204  0.37046  0.23961  1.0000
  H   H3        1.0  0.12815  0.41864  0.21365  1.0000
  O   O5        1.0  0.21102  0.51015  0.23027  1.0000
  O   O6        1.0  0.29914  0.51014  0.26973  1.0000
  H   H4        1.0  0.29047  0.41861  0.28634  1.0000
  O   O7        1.0  0.20761  0.32709  0.26973  1.0000
  O   O8        1.0  0.11949  0.32711  0.23027  1.0000
  C   C13       1.0  0.74430  0.16294  0.39590  1.0000
  C   C14       1.0  0.74341  0.21022  0.40628  1.0000
  C   C15       1.0  0.78978  0.25660  0.42705  1.0000
  C   C16       1.0  0.83706  0.25570  0.43743  1.0000
  C   C17       1.0  0.83796  0.20842  0.42705  1.0000
  C   C18       1.0  0.79158  0.16204  0.40628  1.0000
  H   H5        1.0  0.70952  0.12816  0.38032  1.0000
  O   O9        1.0  0.70086  0.21102  0.39693  1.0000
  O   O10       1.0  0.78898  0.29914  0.43639  1.0000
  H   H6        1.0  0.87184  0.29048  0.45301  1.0000
  O   O11       1.0  0.88050  0.20762  0.43639  1.0000
  O   O12       1.0  0.79238  0.11950  0.39693  1.0000
  C   C19       1.0  0.58137  0.83343  0.61878  1.0000
  C   C20       1.0  0.53321  0.78797  0.60105  1.0000
  C   C21       1.0  0.53321  0.74523  0.56560  1.0000
  C   C22       1.0  0.58139  0.74794  0.54787  1.0000
  C   C23       1.0  0.62955  0.79340  0.56560  1.0000
  C   C24       1.0  0.62954  0.83615  0.60106  1.0000
  H   H7        1.0  0.58136  0.86549  0.64538  1.0000
  O   O13       1.0  0.48985  0.78553  0.61701  1.0000
  O   O14       1.0  0.48986  0.70431  0.54964  1.0000
  H   H8        1.0  0.58139  0.71588  0.52128  1.0000
  O   O15       1.0  0.67291  0.79585  0.54965  1.0000
  O   O16       1.0  0.67289  0.87706  0.61701  1.0000
  C   C25       1.0  0.74431  0.58138  0.77077  1.0000
  C   C26       1.0  0.74341  0.53321  0.76038  1.0000
  C   C27       1.0  0.78979  0.53320  0.73962  1.0000
  C   C28       1.0  0.83706  0.58137  0.72923  1.0000
  C   C29       1.0  0.83796  0.62954  0.73962  1.0000
  C   C30       1.0  0.79158  0.62955  0.76038  1.0000
  H   H9        1.0  0.70952  0.58139  0.78634  1.0000
  O   O17       1.0  0.70086  0.48986  0.76973  1.0000
  O   O18       1.0  0.78898  0.48985  0.73027  1.0000
  H   H10       1.0  0.87185  0.58136  0.71365  1.0000
  O   O19       1.0  0.88051  0.67289  0.73027  1.0000
  O   O20       1.0  0.79239  0.67290  0.76973  1.0000
  C   C31       1.0  0.25570  0.83706  0.89590  1.0000
  C   C32       1.0  0.25660  0.78978  0.90628  1.0000
  C   C33       1.0  0.21022  0.74340  0.92705  1.0000
  C   C34       1.0  0.16294  0.74430  0.93743  1.0000
  C   C35       1.0  0.16204  0.79158  0.92705  1.0000
  C   C36       1.0  0.20842  0.83796  0.90628  1.0000
  H   H11       1.0  0.29048  0.87184  0.88032  1.0000
  O   O21       1.0  0.29914  0.78898  0.89693  1.0000
  O   O22       1.0  0.21102  0.70086  0.93639  1.0000
  H   H12       1.0  0.12816  0.70952  0.95301  1.0000
  O   O23       1.0  0.11950  0.79238  0.93639  1.0000
  O   O24       1.0  0.20762  0.88050  0.89693  1.0000
  C   C37       1.0  0.68103  0.39736  0.96138  1.0000
  C   C38       1.0  0.68568  0.40201  0.88481  1.0000
  C   C39       1.0  0.64649  0.36282  0.84009  1.0000
  C   C40       1.0  0.60264  0.31897  0.87194  1.0000
  C   C41       1.0  0.59799  0.31432  0.94851  1.0000
  C   C42       1.0  0.63718  0.35351  0.99323  1.0000
  H   H13       1.0  0.71042  0.42675  0.99492  1.0000
  O   O25       1.0  0.72514  0.44147  0.85615  1.0000
  O   O26       1.0  0.65068  0.36701  0.77118  1.0000
  H   H14       1.0  0.57325  0.28958  0.83840  1.0000
  O   O27       1.0  0.55853  0.27486  0.97718  1.0000
  O   O28       1.0  0.63299  0.34932  0.06215  1.0000
  C   C43       1.0  0.28361  0.68099  0.12805  1.0000
  C   C44       1.0  0.28365  0.63716  0.15990  1.0000
  C   C45       1.0  0.28374  0.59801  0.11518  1.0000
  C   C46       1.0  0.28378  0.60268  0.03861  1.0000
  C   C47       1.0  0.28374  0.64651  0.00676  1.0000
  C   C48       1.0  0.28366  0.68566  0.05148  1.0000
  H   H15       1.0  0.28355  0.71036  0.16159  1.0000
  O   O29       1.0  0.28362  0.63296  0.22882  1.0000
  O   O30       1.0  0.28377  0.55856  0.14385  1.0000
  H   H16       1.0  0.28384  0.57331  0.00507  1.0000
  O   O31       1.0  0.28378  0.65071  0.93785  1.0000
  O   O32       1.0  0.28362  0.72511  0.02281  1.0000
  C   C49       1.0  0.60265  0.28371  0.29472  1.0000
  C   C50       1.0  0.64649  0.28370  0.32657  1.0000
  C   C51       1.0  0.68568  0.28369  0.28185  1.0000
  C   C52       1.0  0.68103  0.28368  0.20528  1.0000
  C   C53       1.0  0.63718  0.28369  0.17343  1.0000
  C   C54       1.0  0.59799  0.28370  0.21814  1.0000
  H   H17       1.0  0.57326  0.28372  0.32825  1.0000
  O   O33       1.0  0.65068  0.28371  0.39548  1.0000
  O   O34       1.0  0.72514  0.28368  0.31051  1.0000
  H   H18       1.0  0.71042  0.28367  0.17174  1.0000
  O   O35       1.0  0.63299  0.28369  0.10451  1.0000
  O   O36       1.0  0.55853  0.28371  0.18948  1.0000
  C   C55       1.0  0.31901  0.60260  0.46139  1.0000
  C   C56       1.0  0.31434  0.59797  0.38482  1.0000
  C   C57       1.0  0.35349  0.63720  0.34009  1.0000
  C   C58       1.0  0.39731  0.68107  0.37194  1.0000
  C   C59       1.0  0.40199  0.68570  0.44851  1.0000
  C   C60       1.0  0.36284  0.64647  0.49323  1.0000
  H   H19       1.0  0.28965  0.57318  0.49493  1.0000
  O   O37       1.0  0.27490  0.55849  0.35615  1.0000
  O   O38       1.0  0.34928  0.63303  0.27118  1.0000
  H   H20       1.0  0.42668  0.71050  0.33840  1.0000
  O   O39       1.0  0.44143  0.72518  0.47717  1.0000
  O   O40       1.0  0.36705  0.65064  0.56215  1.0000
  C   C61       1.0  0.71630  0.31897  0.62805  1.0000
  C   C62       1.0  0.71630  0.36281  0.65990  1.0000
  C   C63       1.0  0.71630  0.40201  0.61518  1.0000
  C   C64       1.0  0.71630  0.39736  0.53861  1.0000
  C   C65       1.0  0.71630  0.35351  0.50676  1.0000
  C   C66       1.0  0.71630  0.31432  0.55148  1.0000
  H   H21       1.0  0.71630  0.28957  0.66159  1.0000
  O   O41       1.0  0.71630  0.36700  0.72881  1.0000
  O   O42       1.0  0.71630  0.44147  0.64385  1.0000
  H   H22       1.0  0.71630  0.42676  0.50507  1.0000
  O   O43       1.0  0.71630  0.34933  0.43785  1.0000
  O   O44       1.0  0.71630  0.27485  0.52281  1.0000
  C   C67       1.0  0.39735  0.71629  0.79471  1.0000
  C   C68       1.0  0.35351  0.71630  0.82657  1.0000
  C   C69       1.0  0.31432  0.71631  0.78185  1.0000
  C   C70       1.0  0.31898  0.71632  0.70528  1.0000
  C   C71       1.0  0.36282  0.71631  0.67342  1.0000
  C   C72       1.0  0.40201  0.71630  0.71814  1.0000
  H   H23       1.0  0.42675  0.71628  0.82825  1.0000
  O   O45       1.0  0.34932  0.71629  0.89548  1.0000
  O   O46       1.0  0.27486  0.71632  0.81052  1.0000
  H   H24       1.0  0.28958  0.71633  0.67174  1.0000
  O   O47       1.0  0.36701  0.71632  0.60451  1.0000
  O   O48       1.0  0.44147  0.71629  0.68948  1.0000
  C   C73       1.0  0.18838  0.97695  0.07001  1.0000
  C   C74       1.0  0.17222  0.94463  0.00740  1.0000
  C   C75       1.0  0.18375  0.96768  0.93738  1.0000
  C   C76       1.0  0.21143  0.02304  0.92998  1.0000
  C   C77       1.0  0.22759  0.05536  0.99260  1.0000
  C   C78       1.0  0.21606  0.03231  0.06261  1.0000
  H   H25       1.0  0.17974  0.95966  0.12252  1.0000
  O   O49       1.0  0.14731  0.89481  0.01406  1.0000
  O   O50       1.0  0.16921  0.93860  0.88103  1.0000
  H   H26       1.0  0.22007  0.04033  0.87747  1.0000
  O   O51       1.0  0.25250  0.10518  0.98594  1.0000
  O   O52       1.0  0.23060  0.06139  0.11896  1.0000
  C   C79       1.0  0.21142  0.18837  0.23668  1.0000
  C   C80       1.0  0.18374  0.21606  0.22928  1.0000
  C   C81       1.0  0.17222  0.22758  0.15926  1.0000
  C   C82       1.0  0.18837  0.21142  0.09665  1.0000
  C   C83       1.0  0.21606  0.18374  0.10405  1.0000
  C   C84       1.0  0.22758  0.17222  0.17406  1.0000
  H   H27       1.0  0.22007  0.17973  0.28919  1.0000
  O   O53       1.0  0.16920  0.23060  0.28563  1.0000
  O   O54       1.0  0.14730  0.25249  0.15260  1.0000
  H   H28       1.0  0.17973  0.22007  0.04414  1.0000
  O   O55       1.0  0.23060  0.16920  0.04769  1.0000
  O   O56       1.0  0.25250  0.14730  0.18072  1.0000
  C   C85       1.0  0.97695  0.18838  0.26331  1.0000
  C   C86       1.0  0.94463  0.17222  0.32593  1.0000
  C   C87       1.0  0.96768  0.18375  0.39594  1.0000
  C   C88       1.0  0.02304  0.21143  0.40334  1.0000
  C   C89       1.0  0.05536  0.22758  0.34073  1.0000
  C   C90       1.0  0.03231  0.21606  0.27071  1.0000
  H   H29       1.0  0.95966  0.17974  0.21080  1.0000
  O   O57       1.0  0.89481  0.14731  0.31927  1.0000
  O   O58       1.0  0.93860  0.16921  0.45230  1.0000
  H   H30       1.0  0.04033  0.22007  0.45585  1.0000
  O   O59       1.0  0.10518  0.25250  0.34739  1.0000
  O   O60       1.0  0.06139  0.23060  0.21436  1.0000
  C   C91       1.0  0.81071  0.02305  0.57000  1.0000
  C   C92       1.0  0.82732  0.05537  0.50739  1.0000
  C   C93       1.0  0.81671  0.03232  0.43739  1.0000
  C   C94       1.0  0.78948  0.97696  0.43000  1.0000
  C   C95       1.0  0.77287  0.94464  0.49261  1.0000
  C   C96       1.0  0.78348  0.96769  0.56261  1.0000
  H   H31       1.0  0.81867  0.04033  0.62250  1.0000
  O   O61       1.0  0.85182  0.10519  0.51404  1.0000
  O   O62       1.0  0.83166  0.06141  0.38104  1.0000
  H   H32       1.0  0.78153  0.95968  0.37750  1.0000
  O   O63       1.0  0.74837  0.89482  0.48595  1.0000
  O   O64       1.0  0.76853  0.93861  0.61896  1.0000
  C   C97       1.0  0.78802  0.81107  0.73667  1.0000
  C   C98       1.0  0.77214  0.82751  0.67406  1.0000
  C   C99       1.0  0.78422  0.81654  0.60405  1.0000
  C   C100      1.0  0.81218  0.78913  0.59666  1.0000
  C   C101      1.0  0.82806  0.77270  0.65927  1.0000
  C   C102      1.0  0.81598  0.78367  0.72928  1.0000
  H   H33       1.0  0.77897  0.81930  0.78918  1.0000
  O   O65       1.0  0.74698  0.85217  0.68072  1.0000
  O   O66       1.0  0.76993  0.83133  0.54770  1.0000
  H   H34       1.0  0.82124  0.78090  0.54415  1.0000
  O   O67       1.0  0.85322  0.74803  0.65261  1.0000
  O   O68       1.0  0.83028  0.76887  0.78563  1.0000
  C   C103      1.0  0.02305  0.81162  0.76332  1.0000
  C   C104      1.0  0.96769  0.78394  0.77072  1.0000
  C   C105      1.0  0.94464  0.77241  0.84073  1.0000
  C   C106      1.0  0.97696  0.78857  0.90335  1.0000
  C   C107      1.0  0.03232  0.81625  0.89595  1.0000
  C   C108      1.0  0.05537  0.82778  0.82593  1.0000
  H   H35       1.0  0.04034  0.82026  0.71081  1.0000
  O   O69       1.0  0.93861  0.76940  0.71436  1.0000
  O   O70       1.0  0.89482  0.74750  0.84739  1.0000
  H   H36       1.0  0.95967  0.77993  0.95586  1.0000
  O   O71       1.0  0.06140  0.83079  0.95230  1.0000
  O   O72       1.0  0.10519  0.85269  0.81927  1.0000
