data_image0
_chemical_formula_structural       Fe16C6HO2HO2C6HO2HO2C6HO2HO2C6HO2HO2C6HO2HO2C6HO2HO2C6HO2HO2C6HO2HO2C6HO2HO2C6HO2HO2C6HO2HO2C6HO2HO2C6HO2HO2C6HO2HO2C6HO2HO2C6HO2HO2C6HO2HO2C6HO2HO2C6HO2HO2C6HO2HO2C6HO2HO2C6HO2HO2C6HO2HO2C6HO2HO2
_chemical_formula_sum              "Fe16 C144 H48 O96"
_cell_length_a       16.5502
_cell_length_b       16.5502
_cell_length_c       50.0989
_cell_angle_alpha    89.9996
_cell_angle_beta     89.9996
_cell_angle_gamma    89.9926

_space_group_name_H-M_alt    "P 1"
_space_group_IT_number       1

loop_
  _space_group_symop_operation_xyz
  'x, y, z'

loop_
  _atom_site_type_symbol
  _atom_site_label
  _atom_site_symmetry_multiplicity
  _atom_site_fract_x
  _atom_site_fract_y
  _atom_site_fract_z
  _atom_site_occupancy
  Fe  Fe1       1.0  0.18436  0.13283  0.18880  1.0000
  Fe  Fe2       1.0  0.86716  0.68438  0.43879  1.0000
  Fe  Fe3       1.0  0.31562  0.36719  0.68879  1.0000
  Fe  Fe4       1.0  0.63286  0.81563  0.93879  1.0000
  Fe  Fe5       1.0  0.18437  0.36714  0.06121  1.0000
  Fe  Fe6       1.0  0.63281  0.68438  0.31121  1.0000
  Fe  Fe7       1.0  0.31562  0.13284  0.56121  1.0000
  Fe  Fe8       1.0  0.86717  0.81564  0.81120  1.0000
  Fe  Fe9       1.0  0.68442  0.63282  0.68879  1.0000
  Fe  Fe10      1.0  0.36713  0.18440  0.93879  1.0000
  Fe  Fe11      1.0  0.81560  0.86717  0.18880  1.0000
  Fe  Fe12      1.0  0.13284  0.31558  0.43879  1.0000
  Fe  Fe13      1.0  0.68442  0.86716  0.56121  1.0000
  Fe  Fe14      1.0  0.13283  0.18440  0.81120  1.0000
  Fe  Fe15      1.0  0.81560  0.63287  0.06121  1.0000
  Fe  Fe16      1.0  0.36718  0.31558  0.31121  1.0000
  C   C1        1.0  0.36204  0.18377  0.24245  1.0000
  C   C2        1.0  0.29432  0.16890  0.22644  1.0000
  C   C3        1.0  0.21856  0.19883  0.23399  1.0000
  C   C4        1.0  0.21053  0.24363  0.25755  1.0000
  C   C5        1.0  0.27825  0.25849  0.27356  1.0000
  C   C6        1.0  0.35400  0.22856  0.26601  1.0000
  H   H1        1.0  0.41885  0.16132  0.23679  1.0000
  O   O1        1.0  0.30155  0.12859  0.20524  1.0000
  O   O2        1.0  0.15762  0.18546  0.21958  1.0000
  H   H2        1.0  0.15371  0.26607  0.26321  1.0000
  O   O3        1.0  0.27102  0.29880  0.29476  1.0000
  O   O4        1.0  0.41495  0.24194  0.28042  1.0000
  C   C7        1.0  0.79635  0.86335  0.48897  1.0000
  C   C8        1.0  0.82115  0.79498  0.47470  1.0000
  C   C9        1.0  0.81110  0.71791  0.48573  1.0000
  C   C10       1.0  0.77625  0.70920  0.51103  1.0000
  C   C11       1.0  0.75145  0.77757  0.52530  1.0000
  C   C12       1.0  0.76150  0.85465  0.51427  1.0000
  H   H3        1.0  0.80388  0.92115  0.48070  1.0000
  O   O5        1.0  0.85251  0.80281  0.45193  1.0000
  O   O6        1.0  0.83342  0.65637  0.47288  1.0000
  H   H4        1.0  0.76871  0.65140  0.51930  1.0000
  O   O7        1.0  0.72009  0.76974  0.54807  1.0000
  O   O8        1.0  0.73918  0.91618  0.52712  1.0000
  C   C13       1.0  0.13665  0.29627  0.73895  1.0000
  C   C14       1.0  0.14535  0.26145  0.76426  1.0000
  C   C15       1.0  0.22241  0.25148  0.77530  1.0000
  C   C16       1.0  0.29078  0.27634  0.76104  1.0000
  C   C17       1.0  0.28208  0.31116  0.73574  1.0000
  C   C18       1.0  0.20502  0.32112  0.72469  1.0000
  H   H5        1.0  0.07885  0.30374  0.73067  1.0000
  O   O9        1.0  0.08382  0.23908  0.77709  1.0000
  O   O10       1.0  0.23024  0.22015  0.79808  1.0000
  H   H6        1.0  0.34858  0.26887  0.76933  1.0000
  O   O11       1.0  0.34361  0.33353  0.72290  1.0000
  O   O12       1.0  0.19719  0.35246  0.70192  1.0000
  C   C19       1.0  0.68353  0.63805  0.99251  1.0000
  C   C20       1.0  0.72845  0.64607  0.01604  1.0000
  C   C21       1.0  0.75865  0.72176  0.02353  1.0000
  C   C22       1.0  0.74393  0.78944  0.00748  1.0000
  C   C23       1.0  0.69900  0.78143  0.98396  1.0000
  C   C24       1.0  0.66880  0.70573  0.97647  1.0000
  H   H7        1.0  0.66088  0.58128  0.98690  1.0000
  O   O13       1.0  0.74171  0.58516  0.03048  1.0000
  O   O14       1.0  0.79909  0.72898  0.04471  1.0000
  H   H8        1.0  0.76658  0.84621  0.01310  1.0000
  O   O15       1.0  0.68575  0.84234  0.96952  1.0000
  O   O16       1.0  0.62837  0.69852  0.95529  1.0000
  C   C25       1.0  0.20919  0.27633  0.98896  1.0000
  C   C26       1.0  0.27755  0.25148  0.97469  1.0000
  C   C27       1.0  0.35462  0.26142  0.98573  1.0000
  C   C28       1.0  0.36332  0.29621  0.01104  1.0000
  C   C29       1.0  0.29496  0.32107  0.02531  1.0000
  C   C30       1.0  0.21789  0.31113  0.01427  1.0000
  H   H9        1.0  0.15139  0.26887  0.98068  1.0000
  O   O17       1.0  0.26972  0.22016  0.95192  1.0000
  O   O18       1.0  0.41614  0.23905  0.97290  1.0000
  H   H10       1.0  0.42112  0.30367  0.01932  1.0000
  O   O19       1.0  0.30279  0.35238  0.04809  1.0000
  O   O20       1.0  0.15636  0.33349  0.02711  1.0000
  C   C31       1.0  0.68348  0.86198  0.25749  1.0000
  C   C32       1.0  0.72843  0.85397  0.23396  1.0000
  C   C33       1.0  0.75864  0.77827  0.22648  1.0000
  C   C34       1.0  0.74391  0.71059  0.24252  1.0000
  C   C35       1.0  0.69897  0.71860  0.26604  1.0000
  C   C36       1.0  0.66875  0.79430  0.27353  1.0000
  H   H11       1.0  0.66082  0.91875  0.26310  1.0000
  O   O21       1.0  0.74168  0.91488  0.21953  1.0000
  O   O22       1.0  0.79909  0.77106  0.20530  1.0000
  H   H12       1.0  0.76657  0.65382  0.23690  1.0000
  O   O23       1.0  0.68571  0.65769  0.28048  1.0000
  O   O24       1.0  0.62830  0.80151  0.29470  1.0000
  C   C37       1.0  0.13815  0.18298  0.50738  1.0000
  C   C38       1.0  0.14610  0.22816  0.48390  1.0000
  C   C39       1.0  0.22168  0.25889  0.47652  1.0000
  C   C40       1.0  0.28930  0.24442  0.49262  1.0000
  C   C41       1.0  0.28135  0.19924  0.51610  1.0000
  C   C42       1.0  0.20577  0.16852  0.52348  1.0000
  H   H13       1.0  0.08146  0.15994  0.51292  1.0000
  O   O25       1.0  0.08524  0.24118  0.46942  1.0000
  O   O26       1.0  0.22884  0.29955  0.45539  1.0000
  H   H14       1.0  0.34598  0.26747  0.48708  1.0000
  O   O27       1.0  0.34221  0.18622  0.53058  1.0000
  O   O28       1.0  0.19861  0.12785  0.54461  1.0000
  C   C43       1.0  0.79627  0.63666  0.76105  1.0000
  C   C44       1.0  0.76146  0.64535  0.73574  1.0000
  C   C45       1.0  0.75149  0.72241  0.72469  1.0000
  C   C46       1.0  0.77634  0.79078  0.73895  1.0000
  C   C47       1.0  0.81115  0.78209  0.76426  1.0000
  C   C48       1.0  0.82111  0.70503  0.77531  1.0000
  H   H15       1.0  0.80374  0.57886  0.76933  1.0000
  O   O29       1.0  0.73910  0.58381  0.72291  1.0000
  O   O30       1.0  0.72016  0.73022  0.70192  1.0000
  H   H16       1.0  0.76886  0.84857  0.73067  1.0000
  O   O31       1.0  0.83351  0.84363  0.77709  1.0000
  O   O32       1.0  0.85244  0.69721  0.79808  1.0000
  C   C49       1.0  0.18461  0.31937  0.14025  1.0000
  C   C50       1.0  0.19186  0.32525  0.11247  1.0000
  C   C51       1.0  0.20637  0.25585  0.09723  1.0000
  C   C52       1.0  0.21363  0.18059  0.10976  1.0000
  C   C53       1.0  0.20637  0.17471  0.13753  1.0000
  C   C54       1.0  0.19186  0.24411  0.15278  1.0000
  H   H17       1.0  0.17372  0.37142  0.15168  1.0000
  O   O33       1.0  0.18533  0.39299  0.10120  1.0000
  O   O34       1.0  0.21291  0.26114  0.07223  1.0000
  H   H18       1.0  0.22451  0.12854  0.09832  1.0000
  O   O35       1.0  0.21290  0.10697  0.14881  1.0000
  O   O36       1.0  0.18533  0.23882  0.17777  1.0000
  C   C55       1.0  0.68059  0.71365  0.39025  1.0000
  C   C56       1.0  0.75586  0.70639  0.40277  1.0000
  C   C57       1.0  0.82525  0.69188  0.38752  1.0000
  C   C58       1.0  0.81937  0.68463  0.35975  1.0000
  C   C59       1.0  0.74410  0.69188  0.34723  1.0000
  C   C60       1.0  0.67471  0.70639  0.36247  1.0000
  H   H19       1.0  0.62855  0.72453  0.40168  1.0000
  O   O37       1.0  0.76116  0.71292  0.42777  1.0000
  O   O38       1.0  0.89300  0.68535  0.39880  1.0000
  H   H20       1.0  0.87141  0.67374  0.34831  1.0000
  O   O39       1.0  0.73881  0.68535  0.32223  1.0000
  O   O40       1.0  0.60697  0.71292  0.35120  1.0000
  C   C61       1.0  0.28636  0.18063  0.64025  1.0000
  C   C62       1.0  0.29361  0.25590  0.65277  1.0000
  C   C63       1.0  0.30812  0.32529  0.63753  1.0000
  C   C64       1.0  0.31537  0.31940  0.60975  1.0000
  C   C65       1.0  0.30812  0.24414  0.59723  1.0000
  C   C66       1.0  0.29361  0.17475  0.61248  1.0000
  H   H21       1.0  0.27548  0.12859  0.65169  1.0000
  O   O41       1.0  0.28709  0.26120  0.67777  1.0000
  O   O42       1.0  0.31464  0.39303  0.64880  1.0000
  H   H22       1.0  0.32624  0.37144  0.59832  1.0000
  O   O43       1.0  0.31464  0.23884  0.57223  1.0000
  O   O44       1.0  0.28709  0.10701  0.60120  1.0000
  C   C67       1.0  0.68063  0.78637  0.85975  1.0000
  C   C68       1.0  0.75589  0.79363  0.84722  1.0000
  C   C69       1.0  0.82528  0.80814  0.86247  1.0000
  C   C70       1.0  0.81941  0.81539  0.89024  1.0000
  C   C71       1.0  0.74414  0.80814  0.90277  1.0000
  C   C72       1.0  0.67475  0.79363  0.88752  1.0000
  H   H23       1.0  0.62859  0.77549  0.84832  1.0000
  O   O45       1.0  0.76118  0.78710  0.82223  1.0000
  O   O46       1.0  0.89302  0.81467  0.85119  1.0000
  H   H24       1.0  0.87145  0.82628  0.90168  1.0000
  O   O47       1.0  0.73886  0.81466  0.92777  1.0000
  O   O48       1.0  0.60702  0.78710  0.89880  1.0000
  C   C73       1.0  0.78283  0.73951  0.62270  1.0000
  C   C74       1.0  0.74101  0.78532  0.60370  1.0000
  C   C75       1.0  0.65736  0.79580  0.60600  1.0000
  C   C76       1.0  0.61553  0.76047  0.62730  1.0000
  C   C77       1.0  0.65735  0.71465  0.64630  1.0000
  C   C78       1.0  0.74100  0.70417  0.64400  1.0000
  H   H25       1.0  0.84557  0.73165  0.62098  1.0000
  O   O49       1.0  0.77865  0.81713  0.58453  1.0000
  O   O50       1.0  0.61971  0.83704  0.58890  1.0000
  H   H26       1.0  0.55279  0.76833  0.62903  1.0000
  O   O51       1.0  0.61971  0.68284  0.66547  1.0000
  O   O52       1.0  0.77865  0.66293  0.66110  1.0000
  C   C79       1.0  0.23952  0.11550  0.87730  1.0000
  C   C80       1.0  0.20418  0.15733  0.85599  1.0000
  C   C81       1.0  0.21464  0.24098  0.85369  1.0000
  C   C82       1.0  0.26044  0.28281  0.87269  1.0000
  C   C83       1.0  0.29578  0.24098  0.89400  1.0000
  C   C84       1.0  0.28531  0.15733  0.89630  1.0000
  H   H27       1.0  0.23167  0.05277  0.87902  1.0000
  O   O53       1.0  0.16296  0.11969  0.83889  1.0000
  O   O54       1.0  0.18284  0.27862  0.83452  1.0000
  H   H28       1.0  0.26829  0.34554  0.87097  1.0000
  O   O55       1.0  0.33700  0.27862  0.91110  1.0000
  O   O56       1.0  0.31712  0.11969  0.91547  1.0000
  C   C85       1.0  0.88450  0.73954  0.12730  1.0000
  C   C86       1.0  0.84267  0.70421  0.10600  1.0000
  C   C87       1.0  0.75902  0.71470  0.10370  1.0000
  C   C88       1.0  0.71719  0.76051  0.12270  1.0000
  C   C89       1.0  0.75902  0.79583  0.14401  1.0000
  C   C90       1.0  0.84267  0.78535  0.14631  1.0000
  H   H29       1.0  0.94723  0.73168  0.12903  1.0000
  O   O57       1.0  0.88031  0.66298  0.08890  1.0000
  O   O58       1.0  0.72138  0.68290  0.08453  1.0000
  H   H30       1.0  0.65446  0.76837  0.12098  1.0000
  O   O59       1.0  0.72138  0.83706  0.16111  1.0000
  O   O60       1.0  0.88031  0.81714  0.16548  1.0000
  C   C91       1.0  0.26048  0.38447  0.37730  1.0000
  C   C92       1.0  0.29582  0.34265  0.35600  1.0000
  C   C93       1.0  0.28536  0.25900  0.35370  1.0000
  C   C94       1.0  0.23955  0.21717  0.37270  1.0000
  C   C95       1.0  0.20421  0.25899  0.39400  1.0000
  C   C96       1.0  0.21467  0.34264  0.39630  1.0000
  H   H31       1.0  0.26832  0.44721  0.37903  1.0000
  O   O61       1.0  0.33705  0.38029  0.33890  1.0000
  O   O62       1.0  0.31717  0.22135  0.33453  1.0000
  H   H32       1.0  0.23170  0.15443  0.37097  1.0000
  O   O63       1.0  0.16298  0.22135  0.41110  1.0000
  O   O64       1.0  0.18286  0.38028  0.41547  1.0000
  C   C97       1.0  0.96207  0.06742  0.17929  1.0000
  C   C98       1.0  0.91717  0.99781  0.18495  1.0000
  C   C99       1.0  0.95508  0.93039  0.19626  1.0000
  C   C100      1.0  0.03789  0.93258  0.20192  1.0000
  C   C101      1.0  0.08279  0.00219  0.19626  1.0000
  C   C102      1.0  0.04488  0.06961  0.18495  1.0000
  H   H33       1.0  0.93363  0.11799  0.17080  1.0000
  O   O65       1.0  0.84264  0.99584  0.17986  1.0000
  O   O66       1.0  0.91467  0.86774  0.20136  1.0000
  H   H34       1.0  0.06633  0.88201  0.21041  1.0000
  O   O67       1.0  0.15732  0.00416  0.20135  1.0000
  O   O68       1.0  0.08529  0.13226  0.17985  1.0000
  C   C103      1.0  0.04899  0.52752  0.46148  1.0000
  C   C104      1.0  0.98859  0.57761  0.45104  1.0000
  C   C105      1.0  0.93960  0.55007  0.43015  1.0000
  C   C106      1.0  0.95100  0.47243  0.41971  1.0000
  C   C107      1.0  0.01140  0.42234  0.43015  1.0000
  C   C108      1.0  0.06040  0.44988  0.45104  1.0000
  H   H35       1.0  0.08574  0.54817  0.47714  1.0000
  O   O69       1.0  0.97833  0.64748  0.46043  1.0000
  O   O70       1.0  0.88523  0.59515  0.42076  1.0000
  H   H36       1.0  0.91425  0.45178  0.40405  1.0000
  O   O71       1.0  0.02166  0.35247  0.42076  1.0000
  O   O72       1.0  0.11476  0.40480  0.46043  1.0000
  C   C109      1.0  0.52757  0.45100  0.66972  1.0000
  C   C110      1.0  0.44993  0.43961  0.68016  1.0000
  C   C111      1.0  0.42239  0.48861  0.70104  1.0000
  C   C112      1.0  0.47247  0.54901  0.71148  1.0000
  C   C113      1.0  0.55011  0.56039  0.70104  1.0000
  C   C114      1.0  0.57765  0.51139  0.68016  1.0000
  H   H37       1.0  0.54823  0.41424  0.65406  1.0000
  O   O73       1.0  0.40486  0.38525  0.67076  1.0000
  O   O74       1.0  0.35252  0.47836  0.71044  1.0000
  H   H38       1.0  0.45181  0.58576  0.72714  1.0000
  O   O75       1.0  0.59518  0.61475  0.71044  1.0000
  O   O76       1.0  0.64752  0.52164  0.67076  1.0000
  C   C115      1.0  0.45100  0.97247  0.96148  1.0000
  C   C116      1.0  0.51141  0.92239  0.95104  1.0000
  C   C117      1.0  0.56041  0.94994  0.93015  1.0000
  C   C118      1.0  0.54899  0.02757  0.91971  1.0000
  C   C119      1.0  0.48858  0.07765  0.93015  1.0000
  C   C120      1.0  0.43959  0.05010  0.95104  1.0000
  H   H39       1.0  0.41426  0.95180  0.97714  1.0000
  O   O77       1.0  0.52169  0.85252  0.96043  1.0000
  O   O78       1.0  0.61478  0.90486  0.92076  1.0000
  H   H40       1.0  0.58574  0.04823  0.90405  1.0000
  O   O79       1.0  0.47831  0.14752  0.92076  1.0000
  O   O80       1.0  0.38522  0.09517  0.96043  1.0000
  C   C121      1.0  0.02753  0.54900  0.03852  1.0000
  C   C122      1.0  0.07761  0.48859  0.04896  1.0000
  C   C123      1.0  0.05006  0.43959  0.06985  1.0000
  C   C124      1.0  0.97243  0.45101  0.08029  1.0000
  C   C125      1.0  0.92235  0.51142  0.06985  1.0000
  C   C126      1.0  0.94990  0.56041  0.04896  1.0000
  H   H41       1.0  0.04820  0.58574  0.02286  1.0000
  O   O81       1.0  0.14748  0.47831  0.03957  1.0000
  O   O82       1.0  0.09514  0.38522  0.07924  1.0000
  H   H42       1.0  0.95177  0.41426  0.09595  1.0000
  O   O83       1.0  0.85248  0.52169  0.07924  1.0000
  O   O84       1.0  0.90483  0.61478  0.03957  1.0000
  C   C127      1.0  0.43257  0.53788  0.29808  1.0000
  C   C128      1.0  0.43040  0.45507  0.30374  1.0000
  C   C129      1.0  0.49782  0.41717  0.31506  1.0000
  C   C130      1.0  0.56743  0.46208  0.32072  1.0000
  C   C131      1.0  0.56960  0.54489  0.31506  1.0000
  C   C132      1.0  0.50218  0.58279  0.30374  1.0000
  H   H43       1.0  0.38200  0.56631  0.28960  1.0000
  O   O85       1.0  0.36775  0.41466  0.29865  1.0000
  O   O86       1.0  0.49586  0.34264  0.32015  1.0000
  H   H44       1.0  0.61800  0.43365  0.32920  1.0000
  O   O87       1.0  0.63225  0.58530  0.32015  1.0000
  O   O88       1.0  0.50414  0.65732  0.29865  1.0000
  C   C133      1.0  0.46213  0.93258  0.54809  1.0000
  C   C134      1.0  0.54494  0.93039  0.55375  1.0000
  C   C135      1.0  0.58284  0.99781  0.56506  1.0000
  C   C136      1.0  0.53792  0.06743  0.57072  1.0000
  C   C137      1.0  0.45511  0.06962  0.56506  1.0000
  C   C138      1.0  0.41721  0.00220  0.55375  1.0000
  H   H45       1.0  0.43370  0.88201  0.53961  1.0000
  O   O89       1.0  0.58536  0.86774  0.54866  1.0000
  O   O90       1.0  0.65737  0.99584  0.57015  1.0000
  H   H46       1.0  0.56635  0.11799  0.57920  1.0000
  O   O91       1.0  0.41469  0.13227  0.57015  1.0000
  O   O92       1.0  0.34268  0.00417  0.54866  1.0000
  C   C139      1.0  0.05712  0.96790  0.79172  1.0000
  C   C140      1.0  0.06446  0.04781  0.80056  1.0000
  C   C141      1.0  0.00734  0.07994  0.81823  1.0000
  C   C142      1.0  0.94288  0.03214  0.82707  1.0000
  C   C143      1.0  0.93554  0.95223  0.81823  1.0000
  C   C144      1.0  0.99266  0.92010  0.80056  1.0000
  H   H47       1.0  0.09996  0.94381  0.77847  1.0000
  O   O93       1.0  0.12248  0.09083  0.79261  1.0000
  O   O94       1.0  0.01394  0.15186  0.82618  1.0000
  H   H48       1.0  0.90003  0.05623  0.84032  1.0000
  O   O95       1.0  0.87752  0.90921  0.82618  1.0000
  O   O96       1.0  0.98606  0.84818  0.79261  1.0000
